Circuit: * C:\Users\User\Desktop\Engineering project hardware\DC-DC_Converter_Tester_Hardware\Symulacje\MP9928\Variable_converter_feedback\LTC3891_DC1940A.asc

Direct Newton iteration for .op point succeeded.
Ignoring empty pin current: Ix(u1:3)
Ignoring empty pin current: Ix(u1:4)
Ignoring empty pin current: Ix(u1:8)
Ignoring empty pin current: Ix(u1:9)
Ignoring empty pin current: Ix(u1:10)
Ignoring empty pin current: Ix(u1:11)
Ignoring empty pin current: Ix(u1:12)
Ignoring empty pin current: Ix(u1:13)
Ignoring empty pin current: Ix(u1:14)
Ignoring empty pin current: Ix(u1:15)
Ignoring empty pin current: Ix(u1:16)
Ignoring empty pin current: Ix(u1:17)
Ignoring empty pin current: Ix(u1:18)
Ignoring empty pin current: Ix(u1:3)
Ignoring empty pin current: Ix(u1:4)
Ignoring empty pin current: Ix(u1:8)
Ignoring empty pin current: Ix(u1:9)
Ignoring empty pin current: Ix(u1:10)
Ignoring empty pin current: Ix(u1:11)
Ignoring empty pin current: Ix(u1:12)
Ignoring empty pin current: Ix(u1:13)
Ignoring empty pin current: Ix(u1:14)
Ignoring empty pin current: Ix(u1:15)
Ignoring empty pin current: Ix(u1:16)
Ignoring empty pin current: Ix(u1:17)
Ignoring empty pin current: Ix(u1:18)
Heightened Def Con from 1.04378e-006 to 1.04678e-006
Heightened Def Con from 1.04891e-006 to 1.05291e-006
Heightened Def Con from 1.05463e-006 to 1.05475e-006
Heightened Def Con from 1.05475e-006 to 1.05775e-006
Heightened Def Con from 4.28307e-005 to 4.28407e-005
Heightened Def Con from 4.28464e-005 to 4.28494e-005
Heightened Def Con from 4.28505e-005 to 4.28565e-005
Heightened Def Con from 4.96761e-005 to 4.96771e-005
Heightened Def Con from 4.96801e-005 to 4.96861e-005
Heightened Def Con from 5.66018e-005 to 5.66078e-005
Heightened Def Con from 5.67111e-005 to 5.67131e-005
Heightened Def Con from 6.34702e-005 to 6.34782e-005
Heightened Def Con from 6.35873e-005 to 6.35903e-005
Heightened Def Con from 6.36373e-005 to 6.36414e-005
Heightened Def Con from 6.36663e-005 to 6.36675e-005
Heightened Def Con from 6.3674e-005 to 6.3681e-005
Heightened Def Con from 6.36816e-005 to 6.36846e-005
Heightened Def Con from 6.42824e-005 to 6.42835e-005
Heightened Def Con from 6.42878e-005 to 6.42908e-005
Heightened Def Con from 6.42946e-005 to 6.42976e-005
Heightened Def Con from 6.43358e-005 to 6.43518e-005
Heightened Def Con from 7.02887e-005 to 7.02937e-005
Heightened Def Con from 7.04037e-005 to 7.04067e-005
Heightened Def Con from 7.04535e-005 to 7.04546e-005
Heightened Def Con from 7.04549e-005 to 7.04551e-005
Heightened Def Con from 7.04552e-005 to 7.04582e-005
Heightened Def Con from 7.14744e-005 to 7.14756e-005
Heightened Def Con from 7.14765e-005 to 7.14768e-005
Heightened Def Con from 7.14768e-005 to 7.14772e-005
Heightened Def Con from 7.14772e-005 to 7.14812e-005
Heightened Def Con from 7.14834e-005 to 7.14845e-005
Heightened Def Con from 7.15306e-005 to 7.15317e-005
Heightened Def Con from 7.15353e-005 to 7.15483e-005
Heightened Def Con from 7.72145e-005 to 7.72205e-005
Heightened Def Con from 7.73818e-005 to 7.73829e-005
Heightened Def Con from 7.73832e-005 to 7.73862e-005
Heightened Def Con from 7.74099e-005 to 7.7411e-005
Heightened Def Con from 7.74216e-005 to 7.74256e-005
Heightened Def Con from 7.75022e-005 to 7.75052e-005
Heightened Def Con from 7.81382e-005 to 7.81494e-005
Heightened Def Con from 7.81497e-005 to 7.81498e-005
Heightened Def Con from 7.81498e-005 to 7.81498e-005
Heightened Def Con from 7.81499e-005 to 7.81539e-005
Heightened Def Con from 7.81952e-005 to 7.81973e-005
Heightened Def Con from 7.81975e-005 to 7.82045e-005
Heightened Def Con from 8.40849e-005 to 8.40899e-005
Heightened Def Con from 8.42001e-005 to 8.42031e-005
Heightened Def Con from 8.42648e-005 to 8.42678e-005
Heightened Def Con from 8.42871e-005 to 8.42941e-005
Heightened Def Con from 8.43347e-005 to 8.43377e-005
Heightened Def Con from 8.46883e-005 to 8.46887e-005
Heightened Def Con from 8.46895e-005 to 8.46967e-005
Heightened Def Con from 8.47519e-005 to 8.47591e-005
Heightened Def Con from 9.09536e-005 to 9.09596e-005
Heightened Def Con from 9.10546e-005 to 9.10566e-005
Heightened Def Con from 9.10626e-005 to 9.10646e-005
Heightened Def Con from 9.10674e-005 to 9.10695e-005
Heightened Def Con from 9.11093e-005 to 9.11114e-005
Heightened Def Con from 9.11471e-005 to 9.11551e-005
Heightened Def Con from 9.135e-005 to 9.13551e-005
Heightened Def Con from 9.13612e-005 to 9.13612e-005
Heightened Def Con from 9.13612e-005 to 9.13612e-005
Heightened Def Con from 9.13612e-005 to 9.13612e-005
Heightened Def Con from 9.14099e-005 to 9.1416e-005
Heightened Def Con from 9.14202e-005 to 9.14262e-005
Heightened Def Con from 9.14962e-005 to 9.14982e-005
Heightened Def Con from 9.78267e-005 to 9.78327e-005
Heightened Def Con from 9.79777e-005 to 9.79778e-005
Heightened Def Con from 9.79778e-005 to 9.79839e-005
Heightened Def Con from 9.80273e-005 to 9.80313e-005
Heightened Def Con from 9.81794e-005 to 9.81895e-005
Heightened Def Con from 9.81916e-005 to 9.81916e-005
Heightened Def Con from 9.8192e-005 to 9.8192e-005
Heightened Def Con from 9.8192e-005 to 9.8192e-005
Heightened Def Con from 9.8192e-005 to 9.8192e-005
Heightened Def Con from 9.8192e-005 to 9.8196e-005
Heightened Def Con from 9.82394e-005 to 9.82475e-005
Heightened Def Con from 9.82503e-005 to 9.82506e-005
Heightened Def Con from 9.82521e-005 to 9.82561e-005
Heightened Def Con from 0.000104645 to 0.000104651
Heightened Def Con from 0.000104756 to 0.000104759
Heightened Def Con from 0.000104761 to 0.000104764
Heightened Def Con from 0.000104812 to 0.000104812
Heightened Def Con from 0.000104812 to 0.000104815
Heightened Def Con from 0.00010508 to 0.000105089
Heightened Def Con from 0.000105089 to 0.000105092
Heightened Def Con from 0.000105092 to 0.000105095
Heightened Def Con from 0.000105139 to 0.000105142
Heightened Def Con from 0.000105148 to 0.000105156
Heightened Def Con from 0.000105196 to 0.000105199
Heightened Def Con from 0.000111568 to 0.000111574
Heightened Def Con from 0.000111669 to 0.000111671
Heightened Def Con from 0.000111723 to 0.000111729
Heightened Def Con from 0.000111758 to 0.000111765
Heightened Def Con from 0.000111766 to 0.000111767
Heightened Def Con from 0.000111781 to 0.000111784
Heightened Def Con from 0.000112138 to 0.000112139
Heightened Def Con from 0.000112145 to 0.000112145
Heightened Def Con from 0.000112145 to 0.000112149
Heightened Def Con from 0.000112197 to 0.00011221
Heightened Def Con from 0.000118439 to 0.000118445
Heightened Def Con from 0.000118555 to 0.000118558
Heightened Def Con from 0.000118597 to 0.000118597
Heightened Def Con from 0.00011863 to 0.000118633
Heightened Def Con from 0.000118633 to 0.000118637
Heightened Def Con from 0.000118637 to 0.000118641
Heightened Def Con from 0.000118645 to 0.000118649
Heightened Def Con from 0.000119114 to 0.000119116
Heightened Def Con from 0.000119127 to 0.000119127
Heightened Def Con from 0.000119127 to 0.00011913
Heightened Def Con from 0.000119175 to 0.000119178
Heightened Def Con from 0.000119184 to 0.000119192
Heightened Def Con from 0.000125274 to 0.000125279
Heightened Def Con from 0.000125389 to 0.000125392
Heightened Def Con from 0.00012544 to 0.000125442
Heightened Def Con from 0.000125468 to 0.000125475
Heightened Def Con from 0.000125479 to 0.000125483
Heightened Def Con from 0.000126032 to 0.000126034
Heightened Def Con from 0.000126041 to 0.000126041
Heightened Def Con from 0.000126041 to 0.000126041
Heightened Def Con from 0.000126041 to 0.000126041
Heightened Def Con from 0.000126041 to 0.000126042
Heightened Def Con from 0.000126088 to 0.000126092
Heightened Def Con from 0.000126092 to 0.000126098
Heightened Def Con from 0.000132139 to 0.000132145
Heightened Def Con from 0.000132248 to 0.00013225
Heightened Def Con from 0.000132253 to 0.000132256
Heightened Def Con from 0.000132294 to 0.000132303
Heightened Def Con from 0.000132304 to 0.000132307
Heightened Def Con from 0.000132334 to 0.000132345
Heightened Def Con from 0.000132359 to 0.000132362
Heightened Def Con from 0.000132926 to 0.000132931
Heightened Def Con from 0.000132935 to 0.000132936
Heightened Def Con from 0.000132937 to 0.000132942
Heightened Def Con from 0.000132942 to 0.000132945
Heightened Def Con from 0.00013299 to 0.000133006
Heightened Def Con from 0.000139 to 0.000139003
Heightened Def Con from 0.000139004 to 0.000139009
Heightened Def Con from 0.000139112 to 0.000139112
Heightened Def Con from 0.000139197 to 0.000139202
Heightened Def Con from 0.000139208 to 0.000139208
Heightened Def Con from 0.000139222 to 0.000139226
Heightened Def Con from 0.000139859 to 0.00013986
Heightened Def Con from 0.000139868 to 0.000139868
Heightened Def Con from 0.000139868 to 0.000139868
Heightened Def Con from 0.000139868 to 0.000139868
Heightened Def Con from 0.000139868 to 0.000139871
Heightened Def Con from 0.000139924 to 0.000139933
Heightened Def Con from 0.000145923 to 0.000145924
Heightened Def Con from 0.000145924 to 0.000145928
Heightened Def Con from 0.000146029 to 0.000146029
Heightened Def Con from 0.000146038 to 0.000146041
Heightened Def Con from 0.000146079 to 0.000146089
Heightened Def Con from 0.000146119 to 0.000146122
Heightened Def Con from 0.000146128 to 0.000146132
Heightened Def Con from 0.000146824 to 0.000146825
Heightened Def Con from 0.000146835 to 0.000146835
Heightened Def Con from 0.000146835 to 0.000146835
Heightened Def Con from 0.000146835 to 0.000146835
Heightened Def Con from 0.000146835 to 0.000146835
Heightened Def Con from 0.000146835 to 0.000146838
Heightened Def Con from 0.000146883 to 0.0001469
Heightened Def Con from 0.000152794 to 0.000152799
Heightened Def Con from 0.000152951 to 0.00015296
Heightened Def Con from 0.000152965 to 0.000152968
Heightened Def Con from 0.000152991 to 0.000152996
Heightened Def Con from 0.000152998 to 0.000153002
Heightened Def Con from 0.000153012 to 0.000153016
Heightened Def Con from 0.000153745 to 0.000153745
Heightened Def Con from 0.000153747 to 0.000153747
Heightened Def Con from 0.000153752 to 0.000153754
Heightened Def Con from 0.0001538 to 0.000153815
Heightened Def Con from 0.000159665 to 0.00015967
Heightened Def Con from 0.00015978 to 0.000159783
Heightened Def Con from 0.000159821 to 0.000159829
Heightened Def Con from 0.000159864 to 0.000159869
Heightened Def Con from 0.00015987 to 0.000159874
Heightened Def Con from 0.000160679 to 0.000160683
Heightened Def Con from 0.000160689 to 0.000160689
Heightened Def Con from 0.000160689 to 0.000160689
Heightened Def Con from 0.000160689 to 0.000160689
Heightened Def Con from 0.000160689 to 0.000160692
Heightened Def Con from 0.000160736 to 0.00016075
Heightened Def Con from 0.00016075 to 0.000160753
Heightened Def Con from 0.000166536 to 0.000166537
Heightened Def Con from 0.000166537 to 0.00016654
Heightened Def Con from 0.00016665 to 0.000166653
Heightened Def Con from 0.000166687 to 0.000166689
Heightened Def Con from 0.000166692 to 0.000166701
Heightened Def Con from 0.000166702 to 0.000166705
Heightened Def Con from 0.000167593 to 0.000167595
Heightened Def Con from 0.000167598 to 0.000167599
Heightened Def Con from 0.000167601 to 0.000167607
Heightened Def Con from 0.000167607 to 0.000167611
Heightened Def Con from 0.000167655 to 0.000167663
Heightened Def Con from 0.000173405 to 0.000173411
Heightened Def Con from 0.000173521 to 0.000173524
Heightened Def Con from 0.000173562 to 0.000173566
Heightened Def Con from 0.000173569 to 0.000173571
Heightened Def Con from 0.000173572 to 0.000173573
Heightened Def Con from 0.000173611 to 0.000173615
Heightened Def Con from 0.000174516 to 0.000174518
Heightened Def Con from 0.000174522 to 0.000174524
Heightened Def Con from 0.000174527 to 0.000174527
Heightened Def Con from 0.000174527 to 0.000174528
Heightened Def Con from 0.000174575 to 0.000174579
Heightened Def Con from 0.000174582 to 0.000174589
Heightened Def Con from 0.000180278 to 0.000180283
Heightened Def Con from 0.000180435 to 0.000180445
Heightened Def Con from 0.00018047 to 0.000180474
Heightened Def Con from 0.000180505 to 0.000180508
Heightened Def Con from 0.00018144 to 0.000181453
Heightened Def Con from 0.000181453 to 0.000181456
Heightened Def Con from 0.000181495 to 0.000181518
Heightened Def Con from 0.000181555 to 0.000181558
Heightened Def Con from 0.000187149 to 0.000187153
Heightened Def Con from 0.0001873 to 0.000187304
Heightened Def Con from 0.000187304 to 0.000187309
Heightened Def Con from 0.000187347 to 0.000187351
Heightened Def Con from 0.00018837 to 0.000188379
Heightened Def Con from 0.000188379 to 0.000188379
Heightened Def Con from 0.000188379 to 0.000188379
Heightened Def Con from 0.000188379 to 0.000188379
Heightened Def Con from 0.000188379 to 0.000188379
Heightened Def Con from 0.000188379 to 0.000188379
Heightened Def Con from 0.000188379 to 0.000188382
Heightened Def Con from 0.000188431 to 0.000188437
Heightened Def Con from 0.000188439 to 0.000188444
Heightened Def Con from 0.000194019 to 0.000194025
Heightened Def Con from 0.000194178 to 0.000194179
Heightened Def Con from 0.00019418 to 0.00019418
Heightened Def Con from 0.00019422 to 0.000194224
Heightened Def Con from 0.000195291 to 0.000195291
Heightened Def Con from 0.000195293 to 0.000195296
Heightened Def Con from 0.000195296 to 0.000195296
Heightened Def Con from 0.000195296 to 0.000195296
Heightened Def Con from 0.000195296 to 0.000195296
Heightened Def Con from 0.000195296 to 0.000195297
Heightened Def Con from 0.000195356 to 0.000195362
Heightened Def Con from 0.00020089 to 0.000200896
Heightened Def Con from 0.000200991 to 0.000200991
Heightened Def Con from 0.000201046 to 0.000201051
Heightened Def Con from 0.000201052 to 0.000201055
Heightened Def Con from 0.00020108 to 0.000201093
Heightened Def Con from 0.000202207 to 0.000202211
Heightened Def Con from 0.000202211 to 0.000202221
Heightened Def Con from 0.000202268 to 0.000202268
Heightened Def Con from 0.000202277 to 0.000202285
Heightened Def Con from 0.000207761 to 0.000207767
Heightened Def Con from 0.000207921 to 0.000207921
Heightened Def Con from 0.000207961 to 0.000207964
Heightened Def Con from 0.000209137 to 0.000209138
Heightened Def Con from 0.000209143 to 0.000209143
Heightened Def Con from 0.0002092 to 0.000209201
Heightened Def Con from 0.000214621 to 0.00021463
Heightened Def Con from 0.00021474 to 0.000214743
Heightened Def Con from 0.000214782 to 0.000214786
Heightened Def Con from 0.000214788 to 0.00021479
Heightened Def Con from 0.00021479 to 0.00021479
Heightened Def Con from 0.000214821 to 0.000214833
Heightened Def Con from 0.000216048 to 0.000216055
Heightened Def Con from 0.000216055 to 0.000216061
Heightened Def Con from 0.000216061 to 0.000216061
Heightened Def Con from 0.000216061 to 0.000216061
Heightened Def Con from 0.000216061 to 0.000216063
Heightened Def Con from 0.000216108 to 0.000216119
Heightened Def Con from 0.000216119 to 0.000216119
Heightened Def Con from 0.000221503 to 0.000221503
Heightened Def Con from 0.000221503 to 0.000221508
Heightened Def Con from 0.000221618 to 0.000221621
Heightened Def Con from 0.000221663 to 0.000221665
Heightened Def Con from 0.000221669 to 0.00022167
Heightened Def Con from 0.000221696 to 0.000221703
Heightened Def Con from 0.000221703 to 0.000221706
Heightened Def Con from 0.000222984 to 0.000222987
Heightened Def Con from 0.000222991 to 0.000222997
Heightened Def Con from 0.000222997 to 0.000222997
Heightened Def Con from 0.000222997 to 0.000222997
Heightened Def Con from 0.000223055 to 0.000223063
Heightened Def Con from 0.000228374 to 0.00022838
Heightened Def Con from 0.000228489 to 0.000228491
Heightened Def Con from 0.000228534 to 0.00022854
Heightened Def Con from 0.00022857 to 0.000228582
Heightened Def Con from 0.000228582 to 0.000228585
Heightened Def Con from 0.000228593 to 0.000228598
Heightened Def Con from 0.000228625 to 0.000228628
Heightened Def Con from 0.000229908 to 0.000229912
Heightened Def Con from 0.000229914 to 0.000229914
Heightened Def Con from 0.000229914 to 0.000229917
Heightened Def Con from 0.000229961 to 0.000229963
Heightened Def Con from 0.000235245 to 0.00023525
Heightened Def Con from 0.000235403 to 0.000235407
Heightened Def Con from 0.000235412 to 0.000235413
Heightened Def Con from 0.000235438 to 0.000235441
Heightened Def Con from 0.000235451 to 0.000235451
Heightened Def Con from 0.000236831 to 0.000236835
Heightened Def Con from 0.000236837 to 0.000236837
Heightened Def Con from 0.000236837 to 0.000236837
Heightened Def Con from 0.000236837 to 0.000236837
Heightened Def Con from 0.000236837 to 0.000236837
Heightened Def Con from 0.000236837 to 0.000236839
Heightened Def Con from 0.000236893 to 0.000236898
Heightened Def Con from 0.000236899 to 0.000236903
Heightened Def Con from 0.000242093 to 0.0002421
Heightened Def Con from 0.000242181 to 0.000242183
Heightened Def Con from 0.000242205 to 0.000242206
Heightened Def Con from 0.000242247 to 0.000242257
Heightened Def Con from 0.000242285 to 0.000242292
Heightened Def Con from 0.000242296 to 0.000242296
Heightened Def Con from 0.00024231 to 0.000242313
Heightened Def Con from 0.000243712 to 0.000243714
Heightened Def Con from 0.000243722 to 0.000243724
Heightened Def Con from 0.000243731 to 0.000243731
Heightened Def Con from 0.000243731 to 0.000243731
Heightened Def Con from 0.000243731 to 0.000243734
Heightened Def Con from 0.000243734 to 0.000243737
Heightened Def Con from 0.000243778 to 0.000243779
Heightened Def Con from 0.000243782 to 0.000243784
Heightened Def Con from 0.000243787 to 0.000243796
Heightened Def Con from 0.000248986 to 0.000248992
Heightened Def Con from 0.000249094 to 0.000249095
Heightened Def Con from 0.000249103 to 0.000249106
Heightened Def Con from 0.000249145 to 0.000249154
Heightened Def Con from 0.000249192 to 0.000249193
Heightened Def Con from 0.000249193 to 0.000249195
Heightened Def Con from 0.000249205 to 0.00024921
Heightened Def Con from 0.00024921 to 0.000249213
Heightened Def Con from 0.000250677 to 0.000250687
Heightened Def Con from 0.000250687 to 0.000250687
Heightened Def Con from 0.000250698 to 0.000250701
Heightened Def Con from 0.000250747 to 0.000250748
Heightened Def Con from 0.000255858 to 0.000255863
Heightened Def Con from 0.000255974 to 0.000255976
Heightened Def Con from 0.000256019 to 0.000256021
Heightened Def Con from 0.000256053 to 0.000256068
Heightened Def Con from 0.000256078 to 0.000256079
Heightened Def Con from 0.00025759 to 0.000257598
Heightened Def Con from 0.000257603 to 0.000257604
Heightened Def Con from 0.000257604 to 0.000257604
Heightened Def Con from 0.000257604 to 0.000257604
Heightened Def Con from 0.000257604 to 0.000257604
Heightened Def Con from 0.000257604 to 0.000257607
Heightened Def Con from 0.000257651 to 0.000257656
Heightened Def Con from 0.00025766 to 0.000257665
Heightened Def Con from 0.000257665 to 0.000257668
Heightened Def Con from 0.000262728 to 0.000262734
Heightened Def Con from 0.000262838 to 0.000262839
Heightened Def Con from 0.000262845 to 0.000262848
Heightened Def Con from 0.000262895 to 0.000262895
Heightened Def Con from 0.000262895 to 0.000262896
Heightened Def Con from 0.000262935 to 0.000262939
Heightened Def Con from 0.000264513 to 0.000264522
Heightened Def Con from 0.000264524 to 0.000264524
Heightened Def Con from 0.000264524 to 0.000264524
Heightened Def Con from 0.000264524 to 0.000264527
Heightened Def Con from 0.000264528 to 0.000264529
Heightened Def Con from 0.000264581 to 0.000264585
Heightened Def Con from 0.000264586 to 0.000264589
Heightened Def Con from 0.000269593 to 0.000269596
Heightened Def Con from 0.000269598 to 0.000269603
Heightened Def Con from 0.000269713 to 0.000269716
Heightened Def Con from 0.000269758 to 0.000269759
Heightened Def Con from 0.000269763 to 0.000269765
Heightened Def Con from 0.000269804 to 0.000269807
Heightened Def Con from 0.000271434 to 0.000271445
Heightened Def Con from 0.000271446 to 0.000271446
Heightened Def Con from 0.000271446 to 0.00027145
Heightened Def Con from 0.000271453 to 0.000271456
Heightened Def Con from 0.000271492 to 0.000271504
Heightened Def Con from 0.00027647 to 0.000276474
Heightened Def Con from 0.000276631 to 0.000276632
Heightened Def Con from 0.000276632 to 0.000276632
Heightened Def Con from 0.000276665 to 0.000276668
Heightened Def Con from 0.000276671 to 0.000276674
Heightened Def Con from 0.000278352 to 0.000278353
Heightened Def Con from 0.00027836 to 0.00027836
Heightened Def Con from 0.00027836 to 0.00027836
Heightened Def Con from 0.00027836 to 0.00027836
Heightened Def Con from 0.00027836 to 0.00027836
Heightened Def Con from 0.00027836 to 0.00027836
Heightened Def Con from 0.00027836 to 0.00027836
Heightened Def Con from 0.00027836 to 0.00027836
Heightened Def Con from 0.00027836 to 0.000278361
Heightened Def Con from 0.000278361 to 0.000278362
Heightened Def Con from 0.000278408 to 0.000278419
Heightened Def Con from 0.000278423 to 0.000278426
Heightened Def Con from 0.000283292 to 0.000283299
Heightened Def Con from 0.000283409 to 0.000283412
Heightened Def Con from 0.000283448 to 0.000283456
Heightened Def Con from 0.000283457 to 0.000283457
Heightened Def Con from 0.000283457 to 0.000283458
Heightened Def Con from 0.000283486 to 0.00028349
Heightened Def Con from 0.000283494 to 0.000283495
Heightened Def Con from 0.000283497 to 0.0002835
Heightened Def Con from 0.000285215 to 0.000285221
Heightened Def Con from 0.000285223 to 0.000285227
Heightened Def Con from 0.000285229 to 0.000285229
Heightened Def Con from 0.000285229 to 0.000285229
Heightened Def Con from 0.000285229 to 0.000285232
Heightened Def Con from 0.000285276 to 0.000285283
Heightened Def Con from 0.000290212 to 0.000290218
Heightened Def Con from 0.000290312 to 0.000290314
Heightened Def Con from 0.000290375 to 0.000290375
Heightened Def Con from 0.000290376 to 0.000290379
Heightened Def Con from 0.000290408 to 0.000290418
Heightened Def Con from 0.000290428 to 0.000290429
Heightened Def Con from 0.000292202 to 0.00029221
Heightened Def Con from 0.000292211 to 0.000292214
Heightened Def Con from 0.000292215 to 0.000292215
Heightened Def Con from 0.000292215 to 0.000292215
Heightened Def Con from 0.000292215 to 0.000292216
Heightened Def Con from 0.000292264 to 0.000292266
Heightened Def Con from 0.00029227 to 0.00029228
Heightened Def Con from 0.000297083 to 0.000297086
Heightened Def Con from 0.000297198 to 0.000297201
Heightened Def Con from 0.000297239 to 0.000297248
Heightened Def Con from 0.000297248 to 0.000297249
Heightened Def Con from 0.000297286 to 0.000297291
Heightened Def Con from 0.000297301 to 0.000297306
Heightened Def Con from 0.00029912 to 0.00029912
Heightened Def Con from 0.000299121 to 0.000299124
Heightened Def Con from 0.000299169 to 0.000299171
Heightened Def Con from 0.000299181 to 0.000299185
Heightened Def Con from 0.000303954 to 0.000303959
Heightened Def Con from 0.000304069 to 0.000304072
Heightened Def Con from 0.00030412 to 0.000304121
Heightened Def Con from 0.000304159 to 0.000304163
Heightened Def Con from 0.000304173 to 0.000304175
Heightened Def Con from 0.000306046 to 0.000306058
Heightened Def Con from 0.00030606 to 0.00030606
Heightened Def Con from 0.00030606 to 0.00030606
Heightened Def Con from 0.00030606 to 0.000306063
Heightened Def Con from 0.000306064 to 0.000306067
Heightened Def Con from 0.000306106 to 0.000306114
Heightened Def Con from 0.000306116 to 0.000306125
Heightened Def Con from 0.000310825 to 0.000310826
Heightened Def Con from 0.000310826 to 0.00031083
Heightened Def Con from 0.000310941 to 0.000310944
Heightened Def Con from 0.000310984 to 0.000310987
Heightened Def Con from 0.000310987 to 0.000310992
Heightened Def Con from 0.000311021 to 0.000311026
Heightened Def Con from 0.000311029 to 0.000311034
Heightened Def Con from 0.000312955 to 0.000312967
Heightened Def Con from 0.000312968 to 0.000312968
Heightened Def Con from 0.000313011 to 0.000313032
Heightened Def Con from 0.000317696 to 0.000317701
Heightened Def Con from 0.000317849 to 0.000317853
Heightened Def Con from 0.000317853 to 0.000317858
Heightened Def Con from 0.000317859 to 0.000317862
Heightened Def Con from 0.000317911 to 0.000317916
Heightened Def Con from 0.000319878 to 0.000319891
Heightened Def Con from 0.000319891 to 0.000319891
Heightened Def Con from 0.000319891 to 0.000319891
Heightened Def Con from 0.000319891 to 0.000319891
Heightened Def Con from 0.000319939 to 0.000319953
Heightened Def Con from 0.000324567 to 0.000324572
Heightened Def Con from 0.000324672 to 0.000324673
Heightened Def Con from 0.000324682 to 0.000324685
Heightened Def Con from 0.000324719 to 0.00032472
Heightened Def Con from 0.000324726 to 0.000324732
Heightened Def Con from 0.000324732 to 0.000324732
Heightened Def Con from 0.000324732 to 0.000324733
Heightened Def Con from 0.000324762 to 0.000324764
Heightened Def Con from 0.000324772 to 0.000324776
Heightened Def Con from 0.000326812 to 0.000326817
Heightened Def Con from 0.000326817 to 0.000326818
Heightened Def Con from 0.000326824 to 0.000326824
Heightened Def Con from 0.000326824 to 0.000326824
Heightened Def Con from 0.000326824 to 0.000326824
Heightened Def Con from 0.000326824 to 0.000326824
Heightened Def Con from 0.000326824 to 0.000326824
Heightened Def Con from 0.000326824 to 0.000326827
Heightened Def Con from 0.000326872 to 0.000326889
Heightened Def Con from 0.000331437 to 0.000331443
Heightened Def Con from 0.000331553 to 0.000331555
Heightened Def Con from 0.000331597 to 0.000331603
Heightened Def Con from 0.000331604 to 0.000331605
Heightened Def Con from 0.000331605 to 0.000331608
Heightened Def Con from 0.000331632 to 0.000331637
Heightened Def Con from 0.000331642 to 0.000331647
Heightened Def Con from 0.000333716 to 0.000333717
Heightened Def Con from 0.000333723 to 0.000333729
Heightened Def Con from 0.000333729 to 0.000333733
Heightened Def Con from 0.000333776 to 0.00033378
Heightened Def Con from 0.000333788 to 0.000333795
Heightened Def Con from 0.000338308 to 0.000338313
Heightened Def Con from 0.000338409 to 0.000338411
Heightened Def Con from 0.000338459 to 0.000338468
Heightened Def Con from 0.000338469 to 0.00033847
Heightened Def Con from 0.000338507 to 0.000338512
Heightened Def Con from 0.000338522 to 0.000338522
Heightened Def Con from 0.000338522 to 0.000338526
Heightened Def Con from 0.000340643 to 0.000340644
Heightened Def Con from 0.000340645 to 0.000340646
Heightened Def Con from 0.000340651 to 0.000340651
Heightened Def Con from 0.000340651 to 0.000340651
Heightened Def Con from 0.000340699 to 0.000340717
Heightened Def Con from 0.000345159 to 0.000345159
Heightened Def Con from 0.000345159 to 0.000345165
Heightened Def Con from 0.000345276 to 0.000345279
Heightened Def Con from 0.000345318 to 0.000345326
Heightened Def Con from 0.000345357 to 0.000345362
Heightened Def Con from 0.000345365 to 0.000345366
Heightened Def Con from 0.000347534 to 0.000347541
Heightened Def Con from 0.000347541 to 0.000347544
Heightened Def Con from 0.000347588 to 0.000347593
Heightened Def Con from 0.000347596 to 0.000347605
Heightened Def Con from 0.000347607 to 0.00034761
Heightened Def Con from 0.00035205 to 0.000352052
Heightened Def Con from 0.00035216 to 0.000352162
Heightened Def Con from 0.000352165 to 0.000352168
Heightened Def Con from 0.000352215 to 0.000352217
Heightened Def Con from 0.000352246 to 0.000352248
Heightened Def Con from 0.000352248 to 0.000352252
Heightened Def Con from 0.000352255 to 0.000352255
Heightened Def Con from 0.000352255 to 0.000352259
Heightened Def Con from 0.000354493 to 0.000354505
Heightened Def Con from 0.000354505 to 0.000354506
Heightened Def Con from 0.000354554 to 0.000354555
Heightened Def Con from 0.000354555 to 0.00035457
Heightened Def Con from 0.000358879 to 0.000358884
Heightened Def Con from 0.000358987 to 0.000358988
Heightened Def Con from 0.000358993 to 0.000358996
Heightened Def Con from 0.000359044 to 0.000359045
Heightened Def Con from 0.000359045 to 0.000359046
Heightened Def Con from 0.000359075 to 0.000359081
Heightened Def Con from 0.000359083 to 0.000359087
Heightened Def Con from 0.000359087 to 0.000359088
Heightened Def Con from 0.000359117 to 0.00035912
Heightened Def Con from 0.000361353 to 0.000361355
Heightened Def Con from 0.000361362 to 0.000361362
Heightened Def Con from 0.000361362 to 0.000361362
Heightened Def Con from 0.000361362 to 0.000361365
Heightened Def Con from 0.000361409 to 0.000361409
Heightened Def Con from 0.00036142 to 0.000361427
Heightened Def Con from 0.000365792 to 0.000365793
Heightened Def Con from 0.000365793 to 0.000365796
Heightened Def Con from 0.000365956 to 0.000365958
Heightened Def Con from 0.000365987 to 0.000365998
Heightened Def Con from 0.000368343 to 0.000368347
Heightened Def Con from 0.000368356 to 0.000368356
Heightened Def Con from 0.000368356 to 0.000368356
Heightened Def Con from 0.000368356 to 0.000368356
Heightened Def Con from 0.000368356 to 0.000368359
Heightened Def Con from 0.000368403 to 0.000368406
Heightened Def Con from 0.000372659 to 0.000372661
Heightened Def Con from 0.000372662 to 0.000372668
Heightened Def Con from 0.000372826 to 0.000372827
Heightened Def Con from 0.000372827 to 0.000372828
Heightened Def Con from 0.000372857 to 0.000372861
Heightened Def Con from 0.000372866 to 0.000372866
Heightened Def Con from 0.000372866 to 0.000372867
Heightened Def Con from 0.000375255 to 0.000375265
Heightened Def Con from 0.000375266 to 0.000375266
Heightened Def Con from 0.000375267 to 0.00037527
Heightened Def Con from 0.000375313 to 0.000375315
Heightened Def Con from 0.000375323 to 0.000375328
Heightened Def Con from 0.000379534 to 0.00037954
Heightened Def Con from 0.000379688 to 0.000379696
Heightened Def Con from 0.000379697 to 0.000379701
Heightened Def Con from 0.000379735 to 0.000379739
Heightened Def Con from 0.000379748 to 0.000379754
Heightened Def Con from 0.000382157 to 0.000382166
Heightened Def Con from 0.00038217 to 0.00038217
Heightened Def Con from 0.00038217 to 0.00038217
Heightened Def Con from 0.00038217 to 0.000382174
Heightened Def Con from 0.000382216 to 0.00038223
Heightened Def Con from 0.000386405 to 0.000386406
Heightened Def Con from 0.000386556 to 0.000386558
Heightened Def Con from 0.000386565 to 0.000386566
Heightened Def Con from 0.000386594 to 0.000386608
Heightened Def Con from 0.000389083 to 0.000389085
Heightened Def Con from 0.000389093 to 0.000389093
Heightened Def Con from 0.000389093 to 0.000389093
Heightened Def Con from 0.000389094 to 0.000389098
Heightened Def Con from 0.00038914 to 0.000389158
Heightened Def Con from 0.000393272 to 0.000393275
Heightened Def Con from 0.000393275 to 0.000393281
Heightened Def Con from 0.000393391 to 0.000393394
Heightened Def Con from 0.000393433 to 0.000393433
Heightened Def Con from 0.000393434 to 0.00039344
Heightened Def Con from 0.000393441 to 0.000393442
Heightened Def Con from 0.000393481 to 0.000393485
Heightened Def Con from 0.000393491 to 0.000393498
Heightened Def Con from 0.000395998 to 0.000396003
Heightened Def Con from 0.000396008 to 0.000396012
Heightened Def Con from 0.000396014 to 0.000396014
Heightened Def Con from 0.000396014 to 0.000396017
Heightened Def Con from 0.00039607 to 0.00039608
Heightened Def Con from 0.00040014 to 0.000400146
Heightened Def Con from 0.000400251 to 0.000400255
Heightened Def Con from 0.000400301 to 0.000400302
Heightened Def Con from 0.000400303 to 0.000400306
Heightened Def Con from 0.000400331 to 0.000400344
Heightened Def Con from 0.000402927 to 0.000402927
Heightened Def Con from 0.000402932 to 0.000402932
Heightened Def Con from 0.000402932 to 0.000402932
Heightened Def Con from 0.000402932 to 0.000402932
Heightened Def Con from 0.000402932 to 0.000402932
Heightened Def Con from 0.000402932 to 0.000402932
Heightened Def Con from 0.00040298 to 0.000402988
Heightened Def Con from 0.000402989 to 0.000402997
Heightened Def Con from 0.000407018 to 0.000407024
Heightened Def Con from 0.000407133 to 0.000407136
Heightened Def Con from 0.000407175 to 0.000407183
Heightened Def Con from 0.000407183 to 0.000407183
Heightened Def Con from 0.000407183 to 0.000407184
Heightened Def Con from 0.000407212 to 0.00040722
Heightened Def Con from 0.000407222 to 0.000407222
Heightened Def Con from 0.000407222 to 0.000407226
Heightened Def Con from 0.000409808 to 0.000409809
Heightened Def Con from 0.000409858 to 0.00040986
Heightened Def Con from 0.000409861 to 0.000409871
Heightened Def Con from 0.000409871 to 0.000409874
Heightened Def Con from 0.000409919 to 0.000409924
Heightened Def Con from 0.000409927 to 0.000409933
Heightened Def Con from 0.000413889 to 0.000413894
Heightened Def Con from 0.000414044 to 0.000414051
Heightened Def Con from 0.000414051 to 0.000414054
Heightened Def Con from 0.000414078 to 0.000414086
Heightened Def Con from 0.000414088 to 0.000414093
Heightened Def Con from 0.000416766 to 0.000416775
Heightened Def Con from 0.000416775 to 0.000416775
Heightened Def Con from 0.000416775 to 0.000416778
Heightened Def Con from 0.000416779 to 0.000416782
Heightened Def Con from 0.000416788 to 0.000416791
Heightened Def Con from 0.000416822 to 0.000416825
Heightened Def Con from 0.000416831 to 0.000416834
Heightened Def Con from 0.00042076 to 0.000420766
Heightened Def Con from 0.000420859 to 0.00042086
Heightened Def Con from 0.000420912 to 0.000420918
Heightened Def Con from 0.000420919 to 0.000420919
Heightened Def Con from 0.00042092 to 0.000420921
Heightened Def Con from 0.000420949 to 0.000420952
Heightened Def Con from 0.000420952 to 0.000420956
Heightened Def Con from 0.000420972 to 0.000420976
Heightened Def Con from 0.000423697 to 0.000423707
Heightened Def Con from 0.000423707 to 0.000423708
Heightened Def Con from 0.000423758 to 0.000423759
Heightened Def Con from 0.000423763 to 0.000423772
Heightened Def Con from 0.000423772 to 0.000423775
Heightened Def Con from 0.000427583 to 0.000427586
Heightened Def Con from 0.00042769 to 0.000427692
Heightened Def Con from 0.000427743 to 0.000427748
Heightened Def Con from 0.000427748 to 0.000427748
Heightened Def Con from 0.000427788 to 0.000427792
Heightened Def Con from 0.000427792 to 0.000427795
Heightened Def Con from 0.000430528 to 0.000430528
Heightened Def Con from 0.000430533 to 0.000430533
Heightened Def Con from 0.000430541 to 0.000430541
Heightened Def Con from 0.000430541 to 0.000430541
Heightened Def Con from 0.000430541 to 0.000430541
Heightened Def Con from 0.000430541 to 0.000430543
Heightened Def Con from 0.000430586 to 0.000430588
Heightened Def Con from 0.000430597 to 0.000430598
Heightened Def Con from 0.000430599 to 0.000430607
Heightened Def Con from 0.000434449 to 0.000434454
Heightened Def Con from 0.000434557 to 0.000434559
Heightened Def Con from 0.000434596 to 0.000434597
Heightened Def Con from 0.000434602 to 0.000434603
Heightened Def Con from 0.000434609 to 0.000434611
Heightened Def Con from 0.000434611 to 0.000434614
Heightened Def Con from 0.000434639 to 0.000434646
Heightened Def Con from 0.000434649 to 0.000434653
Heightened Def Con from 0.000434657 to 0.00043466
Heightened Def Con from 0.000434661 to 0.000434666
Heightened Def Con from 0.000434703 to 0.000434706
Heightened Def Con from 0.000437476 to 0.000437478
Heightened Def Con from 0.000437479 to 0.000437483
Heightened Def Con from 0.000437484 to 0.000437484
Heightened Def Con from 0.000437484 to 0.000437485
Heightened Def Con from 0.000437485 to 0.000437485
Heightened Def Con from 0.000437485 to 0.000437485
Heightened Def Con from 0.000437485 to 0.000437485
Heightened Def Con from 0.000437485 to 0.000437489
Heightened Def Con from 0.00043749 to 0.000437493
Heightened Def Con from 0.000437528 to 0.000437538
Heightened Def Con from 0.000437543 to 0.00043755
Heightened Def Con from 0.000441372 to 0.000441379
Heightened Def Con from 0.000441521 to 0.000441523
Heightened Def Con from 0.000441524 to 0.000441534
Heightened Def Con from 0.000441534 to 0.000441535
Heightened Def Con from 0.000441535 to 0.000441539
Heightened Def Con from 0.000441573 to 0.000441577
Heightened Def Con from 0.000444498 to 0.000444502
Heightened Def Con from 0.000444503 to 0.000444503
Heightened Def Con from 0.000444503 to 0.000444503
Heightened Def Con from 0.000444504 to 0.000444506
Heightened Def Con from 0.000444559 to 0.000444562
Heightened Def Con from 0.000448237 to 0.000448241
Heightened Def Con from 0.000448241 to 0.000448245
Heightened Def Con from 0.000448397 to 0.000448402
Heightened Def Con from 0.000448406 to 0.000448407
Heightened Def Con from 0.000448407 to 0.00044841
Heightened Def Con from 0.000448424 to 0.000448427
Heightened Def Con from 0.000448437 to 0.000448449
Heightened Def Con from 0.000451367 to 0.00045138
Heightened Def Con from 0.00045138 to 0.00045138
Heightened Def Con from 0.00045138 to 0.000451384
Heightened Def Con from 0.000451436 to 0.000451437
Heightened Def Con from 0.000455115 to 0.00045512
Heightened Def Con from 0.00045527 to 0.000455274
Heightened Def Con from 0.000455311 to 0.000455313
Heightened Def Con from 0.000455314 to 0.000455318
Heightened Def Con from 0.000458289 to 0.000458293
Heightened Def Con from 0.000458294 to 0.000458294
Heightened Def Con from 0.000458294 to 0.000458294
Heightened Def Con from 0.000458296 to 0.000458297
Heightened Def Con from 0.000458297 to 0.000458301
Heightened Def Con from 0.000458301 to 0.000458301
Heightened Def Con from 0.000458301 to 0.000458305
Heightened Def Con from 0.000458349 to 0.000458355
Heightened Def Con from 0.000458356 to 0.00045836
Heightened Def Con from 0.000461985 to 0.000461991
Heightened Def Con from 0.000462102 to 0.000462105
Heightened Def Con from 0.000462152 to 0.000462152
Heightened Def Con from 0.000462152 to 0.000462152
Heightened Def Con from 0.000462152 to 0.000462152
Heightened Def Con from 0.000462152 to 0.000462153
Heightened Def Con from 0.000462181 to 0.000462188
Heightened Def Con from 0.000462191 to 0.000462193
Heightened Def Con from 0.00046523 to 0.00046523
Heightened Def Con from 0.00046523 to 0.00046523
Heightened Def Con from 0.00046523 to 0.000465234
Heightened Def Con from 0.000465277 to 0.000465295
Heightened Def Con from 0.000468856 to 0.000468861
Heightened Def Con from 0.000468954 to 0.000468955
Heightened Def Con from 0.000468972 to 0.000468975
Heightened Def Con from 0.000469022 to 0.000469027
Heightened Def Con from 0.000469051 to 0.000469061
Heightened Def Con from 0.000469063 to 0.000469067
Heightened Def Con from 0.000472134 to 0.000472141
Heightened Def Con from 0.000472149 to 0.000472149
Heightened Def Con from 0.000472149 to 0.000472152
Heightened Def Con from 0.000472154 to 0.000472157
Heightened Def Con from 0.0004722 to 0.000472204
Heightened Def Con from 0.000472206 to 0.000472214
Heightened Def Con from 0.000475727 to 0.000475733
Heightened Def Con from 0.000475833 to 0.000475835
Heightened Def Con from 0.000475837 to 0.000475839
Heightened Def Con from 0.000475842 to 0.000475842
Heightened Def Con from 0.00047588 to 0.000475882
Heightened Def Con from 0.000475894 to 0.000475894
Heightened Def Con from 0.000475895 to 0.000475898
Heightened Def Con from 0.000475925 to 0.000475932
Heightened Def Con from 0.000475932 to 0.000475936
Heightened Def Con from 0.000479057 to 0.000479065
Heightened Def Con from 0.000479069 to 0.000479069
Heightened Def Con from 0.00047907 to 0.000479073
Heightened Def Con from 0.000479087 to 0.00047909
Heightened Def Con from 0.000479097 to 0.0004791
Heightened Def Con from 0.000479122 to 0.000479125
Heightened Def Con from 0.000479126 to 0.000479135
Heightened Def Con from 0.000482594 to 0.000482597
Heightened Def Con from 0.000482597 to 0.000482603
Heightened Def Con from 0.000482713 to 0.000482715
Heightened Def Con from 0.000482757 to 0.000482764
Heightened Def Con from 0.000482764 to 0.000482764
Heightened Def Con from 0.000482764 to 0.000482764
Heightened Def Con from 0.000482795 to 0.000482807
Heightened Def Con from 0.000482807 to 0.000482809
Heightened Def Con from 0.00048598 to 0.000485985
Heightened Def Con from 0.000485992 to 0.000485992
Heightened Def Con from 0.000485992 to 0.000485992
Heightened Def Con from 0.000485992 to 0.000485992
Heightened Def Con from 0.000485992 to 0.000485995
Heightened Def Con from 0.000486044 to 0.000486056
Heightened Def Con from 0.000489469 to 0.000489474
Heightened Def Con from 0.00048958 to 0.000489586
Heightened Def Con from 0.00048962 to 0.000489621
Heightened Def Con from 0.000489627 to 0.000489628
Heightened Def Con from 0.000489654 to 0.00048966
Heightened Def Con from 0.00048966 to 0.000489665
Heightened Def Con from 0.000489665 to 0.00048967
Heightened Def Con from 0.000492892 to 0.000492894
Heightened Def Con from 0.000492901 to 0.000492907
Heightened Def Con from 0.000492907 to 0.00049291
Heightened Def Con from 0.000492957 to 0.000492961
Heightened Def Con from 0.000492961 to 0.000492972
Heightened Def Con from 0.00049634 to 0.000496345
Heightened Def Con from 0.000496455 to 0.000496458
Heightened Def Con from 0.000496505 to 0.000496506
Heightened Def Con from 0.000496525 to 0.000496528
Heightened Def Con from 0.000496536 to 0.000496548
Heightened Def Con from 0.000499814 to 0.000499816
Heightened Def Con from 0.000499825 to 0.000499825
Heightened Def Con from 0.000499832 to 0.000499832
Heightened Def Con from 0.000499832 to 0.000499832
Heightened Def Con from 0.000499832 to 0.000499832
Heightened Def Con from 0.000499832 to 0.000499836
Heightened Def Con from 0.000499881 to 0.000499882
Heightened Def Con from 0.000499884 to 0.000499887
Heightened Def Con from 0.000499889 to 0.000499892
Heightened Def Con from 0.000499893 to 0.000499896
Heightened Def Con from 0.000503211 to 0.000503217
Heightened Def Con from 0.000503375 to 0.000503376
Heightened Def Con from 0.000503386 to 0.000503389
Heightened Def Con from 0.000503404 to 0.000503409
Heightened Def Con from 0.000503411 to 0.000503418
Heightened Def Con from 0.000503418 to 0.000503421
Heightened Def Con from 0.000506728 to 0.000506739
Heightened Def Con from 0.00050674 to 0.00050674
Heightened Def Con from 0.000506741 to 0.000506744
Heightened Def Con from 0.000506778 to 0.000506778
Heightened Def Con from 0.000506788 to 0.000506789
Heightened Def Con from 0.000506793 to 0.0005068
Heightened Def Con from 0.000510081 to 0.000510083
Heightened Def Con from 0.000510083 to 0.000510083
Heightened Def Con from 0.000510179 to 0.000510181
Heightened Def Con from 0.000510197 to 0.0005102
Heightened Def Con from 0.00051024 to 0.000510244
Heightened Def Con from 0.000510247 to 0.000510249
Heightened Def Con from 0.000510268 to 0.000510271
Heightened Def Con from 0.000510274 to 0.000510279
Heightened Def Con from 0.000510279 to 0.000510284
Heightened Def Con from 0.000510285 to 0.000510291
Heightened Def Con from 0.00051035 to 0.000510353
Heightened Def Con from 0.000513679 to 0.000513684
Heightened Def Con from 0.000513684 to 0.000513684
Heightened Def Con from 0.000513684 to 0.000513684
Heightened Def Con from 0.000513684 to 0.000513684
Heightened Def Con from 0.000513684 to 0.000513686
Heightened Def Con from 0.000513686 to 0.000513689
Heightened Def Con from 0.00051374 to 0.000513741
Heightened Def Con from 0.000513743 to 0.00051375
Heightened Def Con from 0.000516953 to 0.000516954
Heightened Def Con from 0.000517052 to 0.000517054
Heightened Def Con from 0.000517067 to 0.00051707
Heightened Def Con from 0.00051711 to 0.000517117
Heightened Def Con from 0.000517118 to 0.000517122
Heightened Def Con from 0.000517149 to 0.000517154
Heightened Def Con from 0.000517156 to 0.000517157
Heightened Def Con from 0.000517169 to 0.000517174
Heightened Def Con from 0.00052058 to 0.000520581
Heightened Def Con from 0.000520587 to 0.000520588
Heightened Def Con from 0.000520588 to 0.000520594
Heightened Def Con from 0.000520594 to 0.000520597
Heightened Def Con from 0.000520636 to 0.000520652
Heightened Def Con from 0.000520653 to 0.000520659
Heightened Def Con from 0.000523824 to 0.00052383
Heightened Def Con from 0.00052394 to 0.000523943
Heightened Def Con from 0.000523982 to 0.000523991
Heightened Def Con from 0.000524017 to 0.000524027
Heightened Def Con from 0.00052403 to 0.000524034
Heightened Def Con from 0.000527503 to 0.000527513
Heightened Def Con from 0.000527514 to 0.000527514
Heightened Def Con from 0.000527514 to 0.000527514
Heightened Def Con from 0.000527515 to 0.000527515
Heightened Def Con from 0.000527515 to 0.000527515
Heightened Def Con from 0.000527564 to 0.000527574
Heightened Def Con from 0.000530691 to 0.000530694
Heightened Def Con from 0.000530694 to 0.0005307
Heightened Def Con from 0.000530805 to 0.000530809
Heightened Def Con from 0.000530809 to 0.00053081
Heightened Def Con from 0.000530853 to 0.000530858
Heightened Def Con from 0.000530858 to 0.000530858
Heightened Def Con from 0.000530858 to 0.000530859
Heightened Def Con from 0.000530859 to 0.000530861
Heightened Def Con from 0.000530886 to 0.000530902
Heightened Def Con from 0.000530902 to 0.000530903
Heightened Def Con from 0.000534412 to 0.000534424
Heightened Def Con from 0.000534424 to 0.000534425
Heightened Def Con from 0.000534426 to 0.000534426
Heightened Def Con from 0.000534426 to 0.00053443
Heightened Def Con from 0.000534472 to 0.000534473
Heightened Def Con from 0.000534473 to 0.000534483
Heightened Def Con from 0.000537562 to 0.000537563
Heightened Def Con from 0.000537566 to 0.000537571
Heightened Def Con from 0.000537664 to 0.000537664
Heightened Def Con from 0.000537682 to 0.000537685
Heightened Def Con from 0.000537724 to 0.000537731
Heightened Def Con from 0.000537732 to 0.000537733
Heightened Def Con from 0.000537734 to 0.000537737
Heightened Def Con from 0.000537758 to 0.000537768
Heightened Def Con from 0.000537768 to 0.000537772
Heightened Def Con from 0.000537772 to 0.000537776
Heightened Def Con from 0.000541346 to 0.000541353
Heightened Def Con from 0.000541355 to 0.000541355
Heightened Def Con from 0.00054136 to 0.00054136
Heightened Def Con from 0.00054136 to 0.000541364
Heightened Def Con from 0.000541408 to 0.00054142
Heightened Def Con from 0.000544436 to 0.000544442
Heightened Def Con from 0.000544539 to 0.000544541
Heightened Def Con from 0.000544547 to 0.000544548
Heightened Def Con from 0.000544548 to 0.000544551
Heightened Def Con from 0.000544551 to 0.000544554
Heightened Def Con from 0.000544596 to 0.000544601
Heightened Def Con from 0.000544601 to 0.000544602
Heightened Def Con from 0.000544616 to 0.000544619
Heightened Def Con from 0.000544629 to 0.000544637
Heightened Def Con from 0.00054464 to 0.000544644
Heightened Def Con from 0.000548264 to 0.000548273
Heightened Def Con from 0.000548279 to 0.000548283
Heightened Def Con from 0.000548335 to 0.000548345
Heightened Def Con from 0.000551308 to 0.000551311
Heightened Def Con from 0.000551422 to 0.000551425
Heightened Def Con from 0.000551463 to 0.000551472
Heightened Def Con from 0.000551501 to 0.000551506
Heightened Def Con from 0.000551511 to 0.000551511
Heightened Def Con from 0.000551512 to 0.000551513
Heightened Def Con from 0.000555181 to 0.000555189
Heightened Def Con from 0.000555196 to 0.000555196
Heightened Def Con from 0.000555196 to 0.000555196
Heightened Def Con from 0.000555196 to 0.000555199
Heightened Def Con from 0.000555243 to 0.000555246
Heightened Def Con from 0.000555248 to 0.000555249
Heightened Def Con from 0.000555252 to 0.000555254
Heightened Def Con from 0.000558178 to 0.000558181
Heightened Def Con from 0.000558282 to 0.000558284
Heightened Def Con from 0.000558293 to 0.000558296
Heightened Def Con from 0.000558338 to 0.000558343
Heightened Def Con from 0.000558343 to 0.000558345
Heightened Def Con from 0.000558368 to 0.000558371
Heightened Def Con from 0.000558378 to 0.000558379
Heightened Def Con from 0.000558383 to 0.000558387
Heightened Def Con from 0.000558397 to 0.000558401
Heightened Def Con from 0.000562109 to 0.000562111
Heightened Def Con from 0.000562117 to 0.000562117
Heightened Def Con from 0.000562117 to 0.000562117
Heightened Def Con from 0.000562117 to 0.00056212
Heightened Def Con from 0.000562174 to 0.000562183
Heightened Def Con from 0.00056505 to 0.000565056
Heightened Def Con from 0.00056515 to 0.000565152
Heightened Def Con from 0.000565166 to 0.000565169
Heightened Def Con from 0.000565208 to 0.000565213
Heightened Def Con from 0.000565216 to 0.000565216
Heightened Def Con from 0.000565216 to 0.000565217
Heightened Def Con from 0.000565241 to 0.000565256
Heightened Def Con from 0.000569034 to 0.000569041
Heightened Def Con from 0.000569044 to 0.000569045
Heightened Def Con from 0.000569045 to 0.000569048
Heightened Def Con from 0.000569066 to 0.000569069
Heightened Def Con from 0.000569092 to 0.000569102
Heightened Def Con from 0.000571866 to 0.000571868
Heightened Def Con from 0.00057187 to 0.000571876
Heightened Def Con from 0.000571989 to 0.000571992
Heightened Def Con from 0.000572026 to 0.000572032
Heightened Def Con from 0.000572032 to 0.000572032
Heightened Def Con from 0.000572062 to 0.000572064
Heightened Def Con from 0.000572071 to 0.000572071
Heightened Def Con from 0.000572071 to 0.000572072
Heightened Def Con from 0.000572072 to 0.000572073
Heightened Def Con from 0.000572073 to 0.000572077
Heightened Def Con from 0.000575845 to 0.000575858
Heightened Def Con from 0.000575859 to 0.000575863
Heightened Def Con from 0.000575904 to 0.000575917
Heightened Def Con from 0.000575917 to 0.000575917
Heightened Def Con from 0.000575919 to 0.000575925
Heightened Def Con from 0.000578787 to 0.00057879
Heightened Def Con from 0.000578791 to 0.000578797
Heightened Def Con from 0.000578892 to 0.000578894
Heightened Def Con from 0.000578947 to 0.000578952
Heightened Def Con from 0.000578955 to 0.000578956
Heightened Def Con from 0.000578956 to 0.000578956
Heightened Def Con from 0.000578956 to 0.00057896
Heightened Def Con from 0.000578985 to 0.000578992
Heightened Def Con from 0.000578992 to 0.000578992
Heightened Def Con from 0.000578994 to 0.000578999
Heightened Def Con from 0.000578999 to 0.000579002
Heightened Def Con from 0.000579009 to 0.000579013
Heightened Def Con from 0.000582915 to 0.000582922
Heightened Def Con from 0.000582927 to 0.000582928
Heightened Def Con from 0.000582928 to 0.000582928
Heightened Def Con from 0.000582928 to 0.000582928
Heightened Def Con from 0.000582932 to 0.000582935
Heightened Def Con from 0.000582981 to 0.000582981
Heightened Def Con from 0.000582985 to 0.000582986
Heightened Def Con from 0.000582986 to 0.000582986
Heightened Def Con from 0.000582987 to 0.000582994
Heightened Def Con from 0.000585658 to 0.000585661
Heightened Def Con from 0.000585662 to 0.000585667
Heightened Def Con from 0.000585766 to 0.000585768
Heightened Def Con from 0.00058577 to 0.000585772
Heightened Def Con from 0.000585777 to 0.00058578
Heightened Def Con from 0.00058582 to 0.000585822
Heightened Def Con from 0.000585828 to 0.000585829
Heightened Def Con from 0.00058583 to 0.00058583
Heightened Def Con from 0.000585856 to 0.000585861
Heightened Def Con from 0.000585863 to 0.000585871
Heightened Def Con from 0.000589795 to 0.000589795
Heightened Def Con from 0.000589795 to 0.000589795
Heightened Def Con from 0.000589795 to 0.000589795
Heightened Def Con from 0.000589795 to 0.000589799
Heightened Def Con from 0.000589844 to 0.000589847
Heightened Def Con from 0.00058985 to 0.000589856
Heightened Def Con from 0.000592522 to 0.000592528
Heightened Def Con from 0.000592632 to 0.000592633
Heightened Def Con from 0.000592675 to 0.000592679
Heightened Def Con from 0.000592683 to 0.000592684
Heightened Def Con from 0.000592689 to 0.000592692
Heightened Def Con from 0.000592711 to 0.000592712
Heightened Def Con from 0.000592716 to 0.00059272
Heightened Def Con from 0.000592721 to 0.000592726
Heightened Def Con from 0.000596689 to 0.000596691
Heightened Def Con from 0.000596691 to 0.000596695
Heightened Def Con from 0.000596697 to 0.000596697
Heightened Def Con from 0.000596697 to 0.000596697
Heightened Def Con from 0.000596697 to 0.0005967
Heightened Def Con from 0.000596754 to 0.000596763
Heightened Def Con from 0.000599404 to 0.00059941
Heightened Def Con from 0.000599512 to 0.000599513
Heightened Def Con from 0.000599518 to 0.000599521
Heightened Def Con from 0.00059956 to 0.00059957
Heightened Def Con from 0.00059957 to 0.000599573
Heightened Def Con from 0.000599597 to 0.000599604
Heightened Def Con from 0.000599607 to 0.000599611
Heightened Def Con from 0.000599622 to 0.000599622
Heightened Def Con from 0.000603628 to 0.000603638
Heightened Def Con from 0.000603639 to 0.000603643
Heightened Def Con from 0.000603696 to 0.000603697
Heightened Def Con from 0.000606275 to 0.000606279
Heightened Def Con from 0.000606375 to 0.000606377
Heightened Def Con from 0.000606389 to 0.000606393
Heightened Def Con from 0.000606431 to 0.000606436
Heightened Def Con from 0.00060644 to 0.000606441
Heightened Def Con from 0.000606442 to 0.000606445
Heightened Def Con from 0.000606445 to 0.000606448
Heightened Def Con from 0.000606459 to 0.000606462
Heightened Def Con from 0.00060647 to 0.000606478
Heightened Def Con from 0.000606479 to 0.000606479
Heightened Def Con from 0.000606479 to 0.000606482
Heightened Def Con from 0.000606493 to 0.000606498
Heightened Def Con from 0.00061057 to 0.00061057
Heightened Def Con from 0.00061057 to 0.000610574
Heightened Def Con from 0.000610623 to 0.000610625
Heightened Def Con from 0.000610626 to 0.000610629
Heightened Def Con from 0.000613146 to 0.000613152
Heightened Def Con from 0.000613247 to 0.000613249
Heightened Def Con from 0.000613262 to 0.000613264
Heightened Def Con from 0.000613265 to 0.000613268
Heightened Def Con from 0.000613306 to 0.000613314
Heightened Def Con from 0.000613314 to 0.000613315
Heightened Def Con from 0.000613315 to 0.000613319
Heightened Def Con from 0.000613354 to 0.000613355
Heightened Def Con from 0.000613355 to 0.000613359
Heightened Def Con from 0.000613369 to 0.000613372
Heightened Def Con from 0.000617477 to 0.00061749
Heightened Def Con from 0.00061749 to 0.000617493
Heightened Def Con from 0.000617537 to 0.000617543
Heightened Def Con from 0.000620017 to 0.000620023
Heightened Def Con from 0.000620114 to 0.000620116
Heightened Def Con from 0.000620171 to 0.000620177
Heightened Def Con from 0.000620179 to 0.000620181
Heightened Def Con from 0.000620181 to 0.000620182
Heightened Def Con from 0.00062021 to 0.000620213
Heightened Def Con from 0.000620235 to 0.000620238
Heightened Def Con from 0.000624401 to 0.000624404
Heightened Def Con from 0.000624404 to 0.000624404
Heightened Def Con from 0.000624404 to 0.000624404
Heightened Def Con from 0.000624404 to 0.000624404
Heightened Def Con from 0.000624404 to 0.000624404
Heightened Def Con from 0.000624404 to 0.000624404
Heightened Def Con from 0.000624404 to 0.000624404
Heightened Def Con from 0.000624404 to 0.000624408
Heightened Def Con from 0.000624453 to 0.000624465
Heightened Def Con from 0.000626888 to 0.000626894
Heightened Def Con from 0.000626986 to 0.000626988
Heightened Def Con from 0.000627003 to 0.000627006
Heightened Def Con from 0.000627043 to 0.000627053
Heightened Def Con from 0.000627053 to 0.000627057
Heightened Def Con from 0.000627083 to 0.000627091
Heightened Def Con from 0.000627092 to 0.000627092
Heightened Def Con from 0.000627092 to 0.000627096
Heightened Def Con from 0.000627103 to 0.00062711
Heightened Def Con from 0.000631311 to 0.00063132
Heightened Def Con from 0.00063132 to 0.000631324
Heightened Def Con from 0.000631324 to 0.000631327
Heightened Def Con from 0.000631367 to 0.000631375
Heightened Def Con from 0.000631376 to 0.000631381
Heightened Def Con from 0.000631381 to 0.000631385
Heightened Def Con from 0.000631385 to 0.000631388
Heightened Def Con from 0.000633729 to 0.000633735
Heightened Def Con from 0.000633829 to 0.000633831
Heightened Def Con from 0.000633877 to 0.000633878
Heightened Def Con from 0.000633883 to 0.000633892
Heightened Def Con from 0.000633923 to 0.000633927
Heightened Def Con from 0.00063393 to 0.000633931
Heightened Def Con from 0.000633952 to 0.000633955
Heightened Def Con from 0.000638175 to 0.000638175
Heightened Def Con from 0.000638175 to 0.000638176
Heightened Def Con from 0.000638176 to 0.00063818
Heightened Def Con from 0.000638232 to 0.000638236
Heightened Def Con from 0.000638236 to 0.000638241
Heightened Def Con from 0.00064063 to 0.000640631
Heightened Def Con from 0.000640729 to 0.000640731
Heightened Def Con from 0.000640744 to 0.000640747
Heightened Def Con from 0.000640785 to 0.000640792
Heightened Def Con from 0.000640794 to 0.000640795
Heightened Def Con from 0.000640797 to 0.000640797
Heightened Def Con from 0.000640834 to 0.000640835
Heightened Def Con from 0.000640835 to 0.000640838
Heightened Def Con from 0.00064519 to 0.000645202
Heightened Def Con from 0.000645202 to 0.000645203
Heightened Def Con from 0.000645249 to 0.00064526
Heightened Def Con from 0.000647497 to 0.000647501
Heightened Def Con from 0.000647501 to 0.000647506
Heightened Def Con from 0.000647606 to 0.000647608
Heightened Def Con from 0.000647655 to 0.000647664
Heightened Def Con from 0.000647665 to 0.000647665
Heightened Def Con from 0.000647665 to 0.000647669
Heightened Def Con from 0.000647703 to 0.000647708
Heightened Def Con from 0.000647718 to 0.000647722
Heightened Def Con from 0.000652089 to 0.000652089
Heightened Def Con from 0.000652089 to 0.000652089
Heightened Def Con from 0.000652089 to 0.000652092
Heightened Def Con from 0.000652136 to 0.000652138
Heightened Def Con from 0.000652145 to 0.000652152
Heightened Def Con from 0.00065437 to 0.00065437
Heightened Def Con from 0.000654372 to 0.000654377
Heightened Def Con from 0.000654462 to 0.000654462
Heightened Def Con from 0.000654477 to 0.000654479
Heightened Def Con from 0.000654481 to 0.000654483
Heightened Def Con from 0.000654523 to 0.000654535
Heightened Def Con from 0.000654562 to 0.000654568
Heightened Def Con from 0.000654569 to 0.000654574
Heightened Def Con from 0.00065899 to 0.000658997
Heightened Def Con from 0.000658997 to 0.000658998
Heightened Def Con from 0.000659003 to 0.000659007
Heightened Def Con from 0.000659051 to 0.000659063
Heightened Def Con from 0.000659065 to 0.000659068
Heightened Def Con from 0.000661239 to 0.000661242
Heightened Def Con from 0.000661243 to 0.000661248
Heightened Def Con from 0.000661346 to 0.000661348
Heightened Def Con from 0.000661358 to 0.000661361
Heightened Def Con from 0.0006614 to 0.000661405
Heightened Def Con from 0.000661409 to 0.000661413
Heightened Def Con from 0.000661421 to 0.000661424
Heightened Def Con from 0.000661433 to 0.000661436
Heightened Def Con from 0.000661437 to 0.000661442
Heightened Def Con from 0.000661444 to 0.000661447
Heightened Def Con from 0.000661448 to 0.000661452
Heightened Def Con from 0.0006659 to 0.000665912
Heightened Def Con from 0.000665914 to 0.000665917
Heightened Def Con from 0.000665967 to 0.000665973
Heightened Def Con from 0.000665974 to 0.00066598
Heightened Def Con from 0.000668055 to 0.000668058
Heightened Def Con from 0.00066806 to 0.000668065
Heightened Def Con from 0.000668159 to 0.000668161
Heightened Def Con from 0.000668175 to 0.000668178
Heightened Def Con from 0.000668216 to 0.000668226
Heightened Def Con from 0.000668264 to 0.000668265
Heightened Def Con from 0.000668267 to 0.00066827
Heightened Def Con from 0.000668275 to 0.000668278
Heightened Def Con from 0.000668278 to 0.00066828
Heightened Def Con from 0.000672732 to 0.000672736
Heightened Def Con from 0.000672745 to 0.000672745
Heightened Def Con from 0.000672745 to 0.000672745
Heightened Def Con from 0.000672745 to 0.000672749
Heightened Def Con from 0.00067279 to 0.000672801
Heightened Def Con from 0.000672802 to 0.000672808
Heightened Def Con from 0.000674981 to 0.000674983
Heightened Def Con from 0.000674984 to 0.000674991
Heightened Def Con from 0.000675095 to 0.000675096
Heightened Def Con from 0.000675098 to 0.000675102
Heightened Def Con from 0.000675141 to 0.000675145
Heightened Def Con from 0.000675149 to 0.00067515
Heightened Def Con from 0.00067515 to 0.000675154
Heightened Def Con from 0.000675189 to 0.000675193
Heightened Def Con from 0.000679827 to 0.000679829
Heightened Def Con from 0.000679838 to 0.000679839
Heightened Def Con from 0.00067984 to 0.00067984
Heightened Def Con from 0.00067984 to 0.00067984
Heightened Def Con from 0.00067984 to 0.000679841
Heightened Def Con from 0.000679899 to 0.000679905
Heightened Def Con from 0.000681855 to 0.000681857
Heightened Def Con from 0.000681954 to 0.000681956
Heightened Def Con from 0.000681971 to 0.000681971
Heightened Def Con from 0.000682011 to 0.000682021
Heightened Def Con from 0.000682021 to 0.000682021
Heightened Def Con from 0.00068206 to 0.000682064
Heightened Def Con from 0.000682064 to 0.000682067
Heightened Def Con from 0.000686688 to 0.000686688
Heightened Def Con from 0.000686688 to 0.000686688
Heightened Def Con from 0.000686688 to 0.000686688
Heightened Def Con from 0.000686688 to 0.000686691
Heightened Def Con from 0.000686736 to 0.000686747
Heightened Def Con from 0.00068675 to 0.000686753
Heightened Def Con from 0.000688669 to 0.000688679
Heightened Def Con from 0.000688784 to 0.000688785
Heightened Def Con from 0.000688789 to 0.00068879
Heightened Def Con from 0.000688829 to 0.000688834
Heightened Def Con from 0.000688839 to 0.00068884
Heightened Def Con from 0.000688871 to 0.000688875
Heightened Def Con from 0.000688878 to 0.000688882
Heightened Def Con from 0.000693479 to 0.000693481
Heightened Def Con from 0.000693484 to 0.000693484
Heightened Def Con from 0.000693484 to 0.000693484
Heightened Def Con from 0.000693484 to 0.000693484
Heightened Def Con from 0.000693484 to 0.000693484
Heightened Def Con from 0.000693484 to 0.000693488
Heightened Def Con from 0.000693536 to 0.000693543
Heightened Def Con from 0.000695594 to 0.000695597
Heightened Def Con from 0.000695597 to 0.000695603
Heightened Def Con from 0.000695699 to 0.000695701
Heightened Def Con from 0.00069571 to 0.000695715
Heightened Def Con from 0.000695755 to 0.000695759
Heightened Def Con from 0.000695763 to 0.000695763
Heightened Def Con from 0.000695763 to 0.000695767
Heightened Def Con from 0.000695772 to 0.000695775
Heightened Def Con from 0.000695796 to 0.000695806
Heightened Def Con from 0.000695816 to 0.000695817
Heightened Def Con from 0.000700605 to 0.000700609
Heightened Def Con from 0.000700611 to 0.000700611
Heightened Def Con from 0.000700611 to 0.000700611
Heightened Def Con from 0.000700611 to 0.000700611
Heightened Def Con from 0.000700611 to 0.000700611
Heightened Def Con from 0.000700611 to 0.000700611
Heightened Def Con from 0.000700611 to 0.000700611
Heightened Def Con from 0.000700611 to 0.000700615
Heightened Def Con from 0.000700616 to 0.000700616
Heightened Def Con from 0.000700651 to 0.000700654
Heightened Def Con from 0.000700654 to 0.000700657
Heightened Def Con from 0.000700663 to 0.000700664
Heightened Def Con from 0.000700667 to 0.000700677
Heightened Def Con from 0.000702419 to 0.000702426
Heightened Def Con from 0.000702504 to 0.000702506
Heightened Def Con from 0.000702536 to 0.000702539
Heightened Def Con from 0.000702577 to 0.000702583
Heightened Def Con from 0.000702587 to 0.000702588
Heightened Def Con from 0.000702589 to 0.000702592
Heightened Def Con from 0.000702625 to 0.000702629
Heightened Def Con from 0.000707337 to 0.000707342
Heightened Def Con from 0.000707343 to 0.000707343
Heightened Def Con from 0.000707343 to 0.000707346
Heightened Def Con from 0.000707349 to 0.000707352
Heightened Def Con from 0.000707399 to 0.0007074
Heightened Def Con from 0.000707401 to 0.000707408
Heightened Def Con from 0.000709337 to 0.000709337
Heightened Def Con from 0.000709341 to 0.000709341
Heightened Def Con from 0.000709341 to 0.000709342
Heightened Def Con from 0.000709434 to 0.000709435
Heightened Def Con from 0.000709446 to 0.000709448
Heightened Def Con from 0.00070945 to 0.000709451
Heightened Def Con from 0.000709456 to 0.000709459
Heightened Def Con from 0.000709497 to 0.000709507
Heightened Def Con from 0.00070954 to 0.000709545
Heightened Def Con from 0.000709545 to 0.000709549
Heightened Def Con from 0.00071442 to 0.000714431
Heightened Def Con from 0.000714431 to 0.000714432
Heightened Def Con from 0.000714482 to 0.00071449
Heightened Def Con from 0.000714493 to 0.000714496
Heightened Def Con from 0.000716211 to 0.000716217
Heightened Def Con from 0.000716322 to 0.000716323
Heightened Def Con from 0.000716362 to 0.00071637
Heightened Def Con from 0.00071637 to 0.000716372
Heightened Def Con from 0.000716372 to 0.000716373
Heightened Def Con from 0.000716399 to 0.000716405
Heightened Def Con from 0.000716411 to 0.000716415
Heightened Def Con from 0.000721263 to 0.000721276
Heightened Def Con from 0.000721276 to 0.000721277
Heightened Def Con from 0.000721277 to 0.000721278
Heightened Def Con from 0.000721278 to 0.000721282
Heightened Def Con from 0.000721325 to 0.000721327
Heightened Def Con from 0.000721331 to 0.000721339
Heightened Def Con from 0.000723082 to 0.000723085
Heightened Def Con from 0.000723175 to 0.000723177
Heightened Def Con from 0.000723191 to 0.000723192
Heightened Def Con from 0.000723198 to 0.000723201
Heightened Def Con from 0.000723241 to 0.000723249
Heightened Def Con from 0.000723249 to 0.00072325
Heightened Def Con from 0.000723271 to 0.000723274
Heightened Def Con from 0.000723277 to 0.000723281
Heightened Def Con from 0.000723287 to 0.000723292
Heightened Def Con from 0.000723302 to 0.000723306
Heightened Def Con from 0.000728218 to 0.000728219
Heightened Def Con from 0.000728219 to 0.000728219
Heightened Def Con from 0.000728219 to 0.000728222
Heightened Def Con from 0.000728278 to 0.000728285
Heightened Def Con from 0.000729952 to 0.000729958
Heightened Def Con from 0.000730052 to 0.000730052
Heightened Def Con from 0.00073006 to 0.00073006
Heightened Def Con from 0.000730067 to 0.00073007
Heightened Def Con from 0.000730108 to 0.000730112
Heightened Def Con from 0.000730116 to 0.000730117
Heightened Def Con from 0.000730149 to 0.000730153
Heightened Def Con from 0.000730155 to 0.00073016
Heightened Def Con from 0.00073017 to 0.00073017
Heightened Def Con from 0.000735117 to 0.000735119
Heightened Def Con from 0.000735125 to 0.000735125
Heightened Def Con from 0.000735125 to 0.000735125
Heightened Def Con from 0.000735125 to 0.000735125
Heightened Def Con from 0.000736823 to 0.000736827
Heightened Def Con from 0.000736923 to 0.000736925
Heightened Def Con from 0.000736938 to 0.000736941
Heightened Def Con from 0.000736978 to 0.000736982
Heightened Def Con from 0.000736984 to 0.000736986
Heightened Def Con from 0.000736987 to 0.000736987
Heightened Def Con from 0.000736989 to 0.000736992
Heightened Def Con from 0.000737018 to 0.000737021
Heightened Def Con from 0.000737022 to 0.000737025
Heightened Def Con from 0.000737025 to 0.00073703
Heightened Def Con from 0.00073704 to 0.00073704
Heightened Def Con from 0.000742054 to 0.000742055
Heightened Def Con from 0.000742055 to 0.000742055
Heightened Def Con from 0.000742055 to 0.000742058
Heightened Def Con from 0.000742112 to 0.000742116
Heightened Def Con from 0.000743694 to 0.0007437
Heightened Def Con from 0.0007438 to 0.000743802
Heightened Def Con from 0.00074381 to 0.000743813
Heightened Def Con from 0.000743853 to 0.000743861
Heightened Def Con from 0.000743892 to 0.000743895
Heightened Def Con from 0.000743901 to 0.000743905
Heightened Def Con from 0.000743914 to 0.000743915
Heightened Def Con from 0.000743949 to 0.000743951
Heightened Def Con from 0.000748973 to 0.000748986
Heightened Def Con from 0.000748986 to 0.000748986
Heightened Def Con from 0.000748986 to 0.000748986
Heightened Def Con from 0.000748986 to 0.000748989
Heightened Def Con from 0.000749034 to 0.000749035
Heightened Def Con from 0.000749043 to 0.000749052
Heightened Def Con from 0.000750565 to 0.000750572
Heightened Def Con from 0.000750667 to 0.000750669
Heightened Def Con from 0.000750681 to 0.000750684
Heightened Def Con from 0.000750722 to 0.000750727
Heightened Def Con from 0.000750727 to 0.000750732
Heightened Def Con from 0.00075076 to 0.00075076
Heightened Def Con from 0.000750771 to 0.000750772
Heightened Def Con from 0.000750772 to 0.000750776
Heightened Def Con from 0.000750814 to 0.000750817
Heightened Def Con from 0.00075588 to 0.000755882
Heightened Def Con from 0.000755882 to 0.000755882
Heightened Def Con from 0.000755883 to 0.000755887
Heightened Def Con from 0.000755888 to 0.000755889
Heightened Def Con from 0.000755889 to 0.000755889
Heightened Def Con from 0.00075594 to 0.000755948
Heightened Def Con from 0.000757435 to 0.000757437
Heightened Def Con from 0.00075754 to 0.000757541
Heightened Def Con from 0.000757546 to 0.000757546
Heightened Def Con from 0.000757549 to 0.000757554
Heightened Def Con from 0.000757588 to 0.000757599
Heightened Def Con from 0.000757623 to 0.000757625
Heightened Def Con from 0.000757626 to 0.00075763
Heightened Def Con from 0.000757632 to 0.000757633
Heightened Def Con from 0.000757636 to 0.000757642
Heightened Def Con from 0.000762814 to 0.000762819
Heightened Def Con from 0.000762819 to 0.000762819
Heightened Def Con from 0.000762819 to 0.000762819
Heightened Def Con from 0.000762819 to 0.000762819
Heightened Def Con from 0.000762819 to 0.000762822
Heightened Def Con from 0.000762823 to 0.000762826
Heightened Def Con from 0.000762876 to 0.000762884
Heightened Def Con from 0.000764308 to 0.000764309
Heightened Def Con from 0.000764404 to 0.000764404
Heightened Def Con from 0.000764416 to 0.000764417
Heightened Def Con from 0.000764417 to 0.000764421
Heightened Def Con from 0.000764421 to 0.000764424
Heightened Def Con from 0.000764462 to 0.000764462
Heightened Def Con from 0.000764464 to 0.000764471
Heightened Def Con from 0.000764472 to 0.000764476
Heightened Def Con from 0.000764511 to 0.000764514
Heightened Def Con from 0.000769629 to 0.000769631
Heightened Def Con from 0.000769727 to 0.000769728
Heightened Def Con from 0.000769735 to 0.000769735
Heightened Def Con from 0.000769735 to 0.000769735
Heightened Def Con from 0.000769735 to 0.000769737
Heightened Def Con from 0.000769777 to 0.000769786
Heightened Def Con from 0.000769786 to 0.000769787
Heightened Def Con from 0.000769793 to 0.0007698
Heightened Def Con from 0.000771177 to 0.000771183
Heightened Def Con from 0.000771284 to 0.000771286
Heightened Def Con from 0.000771329 to 0.000771338
Heightened Def Con from 0.000771338 to 0.000771342
Heightened Def Con from 0.000771366 to 0.000771374
Heightened Def Con from 0.000771376 to 0.000771381
Heightened Def Con from 0.000771391 to 0.000771396
Heightened Def Con from 0.000776644 to 0.000776645
Heightened Def Con from 0.000776651 to 0.000776652
Heightened Def Con from 0.000776652 to 0.000776652
Heightened Def Con from 0.000776652 to 0.000776652
Heightened Def Con from 0.000776652 to 0.000776652
Heightened Def Con from 0.000776652 to 0.000776652
Heightened Def Con from 0.000776652 to 0.000776655
Heightened Def Con from 0.000776699 to 0.000776703
Heightened Def Con from 0.000776708 to 0.000776714
Heightened Def Con from 0.000776714 to 0.000776717
Heightened Def Con from 0.00077805 to 0.000778056
Heightened Def Con from 0.00077816 to 0.000778161
Heightened Def Con from 0.000778165 to 0.000778168
Heightened Def Con from 0.000778208 to 0.000778215
Heightened Def Con from 0.000778217 to 0.000778218
Heightened Def Con from 0.000778227 to 0.00077823
Heightened Def Con from 0.000778242 to 0.000778249
Heightened Def Con from 0.000778252 to 0.000778254
Heightened Def Con from 0.000783589 to 0.000783589
Heightened Def Con from 0.000783589 to 0.000783589
Heightened Def Con from 0.000783589 to 0.000783589
Heightened Def Con from 0.000783589 to 0.000783589
Heightened Def Con from 0.000783589 to 0.000783593
Heightened Def Con from 0.000783632 to 0.000783634
Heightened Def Con from 0.000783637 to 0.000783644
Heightened Def Con from 0.000783645 to 0.000783654
Heightened Def Con from 0.00078492 to 0.000784925
Heightened Def Con from 0.000785023 to 0.000785025
Heightened Def Con from 0.000785031 to 0.000785033
Heightened Def Con from 0.00078507 to 0.000785071
Heightened Def Con from 0.000785073 to 0.000785073
Heightened Def Con from 0.000785073 to 0.000785079
Heightened Def Con from 0.00078508 to 0.000785084
Heightened Def Con from 0.000785119 to 0.000785123
Heightened Def Con from 0.000790472 to 0.000790477
Heightened Def Con from 0.000790479 to 0.000790485
Heightened Def Con from 0.000790485 to 0.000790488
Heightened Def Con from 0.000790533 to 0.00079054
Heightened Def Con from 0.000790542 to 0.000790549
Heightened Def Con from 0.000791791 to 0.000791798
Heightened Def Con from 0.000791889 to 0.00079189
Heightened Def Con from 0.000791898 to 0.0007919
Heightened Def Con from 0.000791942 to 0.000791944
Heightened Def Con from 0.000791945 to 0.000791948
Heightened Def Con from 0.000791952 to 0.000791956
Heightened Def Con from 0.000791981 to 0.000791982
Heightened Def Con from 0.000791982 to 0.000791983
Heightened Def Con from 0.00079199 to 0.000791996
Heightened Def Con from 0.000797415 to 0.000797421
Heightened Def Con from 0.000797421 to 0.000797421
Heightened Def Con from 0.000797421 to 0.000797422
Heightened Def Con from 0.00079743 to 0.000797433
Heightened Def Con from 0.000797469 to 0.000797486
Heightened Def Con from 0.000798661 to 0.000798664
Heightened Def Con from 0.000798763 to 0.000798765
Heightened Def Con from 0.000798776 to 0.000798779
Heightened Def Con from 0.000798819 to 0.000798832
Heightened Def Con from 0.000798861 to 0.000798862
Heightened Def Con from 0.000798867 to 0.000798873
Heightened Def Con from 0.000804349 to 0.000804352
Heightened Def Con from 0.000804352 to 0.000804354
Heightened Def Con from 0.000804382 to 0.000804385
Heightened Def Con from 0.000804399 to 0.000804407
Heightened Def Con from 0.00080441 to 0.000804417
Heightened Def Con from 0.000805485 to 0.000805489
Heightened Def Con from 0.0008056 to 0.000805603
Heightened Def Con from 0.000805637 to 0.000805638
Heightened Def Con from 0.000805638 to 0.00080564
Heightened Def Con from 0.000805646 to 0.000805651
Heightened Def Con from 0.000805652 to 0.000805655
Heightened Def Con from 0.000805686 to 0.000805688
Heightened Def Con from 0.000805689 to 0.000805694
Heightened Def Con from 0.000805706 to 0.000805709
Heightened Def Con from 0.000811123 to 0.000811133
Heightened Def Con from 0.000811134 to 0.000811134
Heightened Def Con from 0.000811134 to 0.000811135
Heightened Def Con from 0.000811184 to 0.000811188
Heightened Def Con from 0.000811193 to 0.000811199
Heightened Def Con from 0.000812403 to 0.00081241
Heightened Def Con from 0.000812502 to 0.000812503
Heightened Def Con from 0.000812517 to 0.00081252
Heightened Def Con from 0.00081252 to 0.000812523
Heightened Def Con from 0.000812563 to 0.000812566
Heightened Def Con from 0.00081257 to 0.000812571
Heightened Def Con from 0.000812572 to 0.000812575
Heightened Def Con from 0.00081261 to 0.000812614
Heightened Def Con from 0.000818311 to 0.000818311
Heightened Def Con from 0.000818311 to 0.000818311
Heightened Def Con from 0.000818311 to 0.000818311
Heightened Def Con from 0.000818311 to 0.000818311
Heightened Def Con from 0.000818311 to 0.000818312
Heightened Def Con from 0.000818358 to 0.000818376
Heightened Def Con from 0.000819274 to 0.000819278
Heightened Def Con from 0.000819278 to 0.000819282
Heightened Def Con from 0.000819375 to 0.000819375
Heightened Def Con from 0.000819377 to 0.000819379
Heightened Def Con from 0.000819391 to 0.000819394
Heightened Def Con from 0.000819427 to 0.000819429
Heightened Def Con from 0.000819433 to 0.000819435
Heightened Def Con from 0.00081944 to 0.00081944
Heightened Def Con from 0.00081944 to 0.00081944
Heightened Def Con from 0.000819441 to 0.000819444
Heightened Def Con from 0.000819452 to 0.000819455
Heightened Def Con from 0.000819468 to 0.000819474
Heightened Def Con from 0.000819478 to 0.00081948
Heightened Def Con from 0.000825039 to 0.000825039
Heightened Def Con from 0.000825039 to 0.000825039
Heightened Def Con from 0.000825039 to 0.000825039
Heightened Def Con from 0.000825039 to 0.000825039
Heightened Def Con from 0.000825053 to 0.000825056
Heightened Def Con from 0.000825096 to 0.000825105
Heightened Def Con from 0.000825105 to 0.000825106
Heightened Def Con from 0.000826147 to 0.000826153
Heightened Def Con from 0.000826245 to 0.000826247
Heightened Def Con from 0.000826256 to 0.000826258
Heightened Def Con from 0.000826262 to 0.000826265
Heightened Def Con from 0.000826303 to 0.000826309
Heightened Def Con from 0.000826312 to 0.000826316
Heightened Def Con from 0.000826344 to 0.000826348
Heightened Def Con from 0.00082635 to 0.000826351
Heightened Def Con from 0.000826352 to 0.000826356
Heightened Def Con from 0.000832044 to 0.000832053
Heightened Def Con from 0.000832053 to 0.000832053
Heightened Def Con from 0.000832053 to 0.000832053
Heightened Def Con from 0.000832053 to 0.000832053
Heightened Def Con from 0.000832103 to 0.000832113
Heightened Def Con from 0.000832113 to 0.000832115
Heightened Def Con from 0.000832964 to 0.000832969
Heightened Def Con from 0.000833073 to 0.000833077
Heightened Def Con from 0.000833077 to 0.00083308
Heightened Def Con from 0.000833123 to 0.000833123
Heightened Def Con from 0.000833127 to 0.000833128
Heightened Def Con from 0.000833129 to 0.000833132
Heightened Def Con from 0.000833167 to 0.000833171
Heightened Def Con from 0.000833181 to 0.000833185
Heightened Def Con from 0.000833222 to 0.000833225
Heightened Def Con from 0.000837101 to 0.000837101
Heightened Def Con from 0.000837101 to 0.000837101
Heightened Def Con from 0.000837101 to 0.000837101
Heightened Def Con from 0.000837101 to 0.000837101
Heightened Def Con from 0.000837101 to 0.000837101
Heightened Def Con from 0.000837101 to 0.000837101
Heightened Def Con from 0.000837101 to 0.000837101
Heightened Def Con from 0.000837101 to 0.000837101
Heightened Def Con from 0.000837101 to 0.000837101
Heightened Def Con from 0.000837101 to 0.000837101
Heightened Def Con from 0.000837101 to 0.000837101
Heightened Def Con from 0.000837101 to 0.000837101
Heightened Def Con from 0.000837101 to 0.000837101
Heightened Def Con from 0.000837101 to 0.000837101
Heightened Def Con from 0.000837101 to 0.000837101
Heightened Def Con from 0.000837101 to 0.000837101
Heightened Def Con from 0.000837101 to 0.000837101
Heightened Def Con from 0.000837101 to 0.000837101
Heightened Def Con from 0.000837101 to 0.000837101
Heightened Def Con from 0.000837101 to 0.000837101
Heightened Def Con from 0.000837101 to 0.000837101
Heightened Def Con from 0.000837101 to 0.000837101
Heightened Def Con from 0.000837101 to 0.000837101
Heightened Def Con from 0.000837101 to 0.000837101
Heightened Def Con from 0.000837101 to 0.000837101
Heightened Def Con from 0.000837101 to 0.000837101
Heightened Def Con from 0.000837101 to 0.000837101
Heightened Def Con from 0.000837101 to 0.000837101
Heightened Def Con from 0.000837101 to 0.000837101
Heightened Def Con from 0.000837101 to 0.000837101
Heightened Def Con from 0.000837101 to 0.000837101
Heightened Def Con from 0.000837101 to 0.000837101
Heightened Def Con from 0.000837101 to 0.000837101
Heightened Def Con from 0.000837101 to 0.000837101
Heightened Def Con from 0.000837101 to 0.000837101
Heightened Def Con from 0.000837101 to 0.000837101
Heightened Def Con from 0.000837101 to 0.000837101
Heightened Def Con from 0.000837101 to 0.000837101
Heightened Def Con from 0.000837101 to 0.000837101
Heightened Def Con from 0.000837101 to 0.000837101
Heightened Def Con from 0.000837101 to 0.000837101
Heightened Def Con from 0.000837101 to 0.000837101
Heightened Def Con from 0.000837101 to 0.000837101
Heightened Def Con from 0.000837101 to 0.000837101
Heightened Def Con from 0.000837101 to 0.000837101
Heightened Def Con from 0.000837101 to 0.000837101
Heightened Def Con from 0.000837101 to 0.000837101
[...]
Heightened Def Con from 0.00278328 to 0.00278328
Heightened Def Con from 0.0027844 to 0.00278441
Heightened Def Con from 0.00278451 to 0.00278451
Heightened Def Con from 0.00278456 to 0.00278456
Heightened Def Con from 0.0027846 to 0.0027846
Heightened Def Con from 0.0027846 to 0.0027846
Heightened Def Con from 0.00278463 to 0.00278463
Heightened Def Con from 0.00279047 to 0.00279048
Heightened Def Con from 0.00279048 to 0.00279048
Heightened Def Con from 0.00279049 to 0.00279049
Heightened Def Con from 0.00279051 to 0.00279052
Heightened Def Con from 0.00279053 to 0.00279053
Heightened Def Con from 0.00279053 to 0.00279055
Heightened Def Con from 0.00279122 to 0.00279122
Heightened Def Con from 0.00279133 to 0.00279134
Heightened Def Con from 0.00279138 to 0.00279138
Heightened Def Con from 0.00279138 to 0.00279138
Heightened Def Con from 0.00279138 to 0.00279139
Heightened Def Con from 0.00279142 to 0.00279143
Heightened Def Con from 0.00279144 to 0.00279144
Heightened Def Con from 0.00279697 to 0.00279697
Heightened Def Con from 0.00279702 to 0.00279702
Heightened Def Con from 0.00279702 to 0.00279702
Heightened Def Con from 0.00279703 to 0.00279703
Heightened Def Con from 0.00279703 to 0.00279703
Heightened Def Con from 0.0027981 to 0.0027981
Heightened Def Con from 0.00279825 to 0.00279826
Heightened Def Con from 0.00279826 to 0.00279826
Heightened Def Con from 0.00279829 to 0.00279829
Heightened Def Con from 0.0028041 to 0.00280411
Heightened Def Con from 0.00280411 to 0.00280411
Heightened Def Con from 0.00280411 to 0.00280411
Heightened Def Con from 0.00280411 to 0.00280411
Heightened Def Con from 0.00280411 to 0.00280411
Heightened Def Con from 0.00280411 to 0.00280411
Heightened Def Con from 0.00280416 to 0.00280417
Heightened Def Con from 0.00280501 to 0.00280502
Heightened Def Con from 0.00280516 to 0.00280517
Heightened Def Con from 0.00280517 to 0.00280518
Heightened Def Con from 0.00280519 to 0.00280519
Heightened Def Con from 0.0028052 to 0.0028052
Heightened Def Con from 0.00280521 to 0.00280521
Heightened Def Con from 0.00280521 to 0.00280522
Heightened Def Con from 0.00280522 to 0.00280522
Heightened Def Con from 0.00280523 to 0.00280523
Heightened Def Con from 0.00280523 to 0.00280523
Heightened Def Con from 0.00281093 to 0.00281094
Heightened Def Con from 0.00281094 to 0.00281094
Heightened Def Con from 0.00281094 to 0.00281095
Heightened Def Con from 0.00281095 to 0.00281095
Heightened Def Con from 0.002811 to 0.002811
Heightened Def Con from 0.00281101 to 0.00281101
Heightened Def Con from 0.00281183 to 0.00281183
Heightened Def Con from 0.00281183 to 0.00281184
Heightened Def Con from 0.00281194 to 0.00281194
Heightened Def Con from 0.00281199 to 0.00281199
Heightened Def Con from 0.00281199 to 0.00281199
Heightened Def Con from 0.00281203 to 0.00281204
Heightened Def Con from 0.00281762 to 0.00281763
Heightened Def Con from 0.00281764 to 0.00281764
Heightened Def Con from 0.00281764 to 0.00281764
Heightened Def Con from 0.00281764 to 0.00281764
Heightened Def Con from 0.00281768 to 0.00281768
Heightened Def Con from 0.0028177 to 0.0028177
Heightened Def Con from 0.00281871 to 0.00281871
Heightened Def Con from 0.00281882 to 0.00281882
Heightened Def Con from 0.00281882 to 0.00281883
Heightened Def Con from 0.00281887 to 0.00281887
Heightened Def Con from 0.0028189 to 0.00281892
Heightened Def Con from 0.00281892 to 0.00281893
Heightened Def Con from 0.00282468 to 0.00282468
Heightened Def Con from 0.00282468 to 0.00282469
Heightened Def Con from 0.00282469 to 0.00282469
Heightened Def Con from 0.00282469 to 0.0028247
Heightened Def Con from 0.0028247 to 0.00282471
Heightened Def Con from 0.00282471 to 0.00282471
Heightened Def Con from 0.00282472 to 0.00282472
Heightened Def Con from 0.00282473 to 0.00282473
Heightened Def Con from 0.00282474 to 0.00282474
Heightened Def Con from 0.00282562 to 0.00282563
Heightened Def Con from 0.00282573 to 0.00282573
Heightened Def Con from 0.00282578 to 0.00282578
Heightened Def Con from 0.00282579 to 0.00282579
Heightened Def Con from 0.00282583 to 0.00282583
Heightened Def Con from 0.0028316 to 0.0028316
Heightened Def Con from 0.0028316 to 0.00283161
Heightened Def Con from 0.00283163 to 0.00283163
Heightened Def Con from 0.00283164 to 0.00283166
Heightened Def Con from 0.00283245 to 0.00283245
Heightened Def Con from 0.00283245 to 0.00283246
Heightened Def Con from 0.00283256 to 0.00283256
Heightened Def Con from 0.00283261 to 0.00283261
Heightened Def Con from 0.00283262 to 0.00283262
Heightened Def Con from 0.00283265 to 0.00283265
Heightened Def Con from 0.00283266 to 0.00283266
Heightened Def Con from 0.00283266 to 0.00283267
Heightened Def Con from 0.00283822 to 0.00283823
Heightened Def Con from 0.00283823 to 0.00283823
Heightened Def Con from 0.00283823 to 0.00283823
Heightened Def Con from 0.00283823 to 0.00283823
Heightened Def Con from 0.00283823 to 0.00283824
Heightened Def Con from 0.00283828 to 0.00283828
Heightened Def Con from 0.00283829 to 0.0028383
Heightened Def Con from 0.00283937 to 0.00283937
Heightened Def Con from 0.00283937 to 0.00283938
Heightened Def Con from 0.00283949 to 0.00283949
Heightened Def Con from 0.00283953 to 0.00283954
Heightened Def Con from 0.00283955 to 0.00283955
Heightened Def Con from 0.00283957 to 0.00283957
Heightened Def Con from 0.00283957 to 0.00283958
Heightened Def Con from 0.00283959 to 0.00283959
Heightened Def Con from 0.00284544 to 0.00284544
Heightened Def Con from 0.00284545 to 0.00284545
Heightened Def Con from 0.00284545 to 0.00284545
Heightened Def Con from 0.00284545 to 0.00284545
Heightened Def Con from 0.0028455 to 0.00284551
Heightened Def Con from 0.00284551 to 0.00284551
Heightened Def Con from 0.00284618 to 0.00284619
Heightened Def Con from 0.0028463 to 0.0028463
Heightened Def Con from 0.00284635 to 0.00284635
Heightened Def Con from 0.00284639 to 0.00284639
Heightened Def Con from 0.00284639 to 0.00284639
Heightened Def Con from 0.0028464 to 0.00284641
Heightened Def Con from 0.00285192 to 0.00285192
Heightened Def Con from 0.00285192 to 0.00285193
Heightened Def Con from 0.00285193 to 0.00285193
Heightened Def Con from 0.00285193 to 0.00285193
Heightened Def Con from 0.00285193 to 0.00285193
Heightened Def Con from 0.00285193 to 0.00285193
Heightened Def Con from 0.00285197 to 0.00285197
Heightened Def Con from 0.00285197 to 0.002852
Heightened Def Con from 0.002852 to 0.00285201
Heightened Def Con from 0.00285306 to 0.00285306
Heightened Def Con from 0.00285317 to 0.00285317
Heightened Def Con from 0.00285322 to 0.00285322
Heightened Def Con from 0.00285322 to 0.00285322
Heightened Def Con from 0.00285322 to 0.00285322
Heightened Def Con from 0.00285325 to 0.00285325
Heightened Def Con from 0.00285325 to 0.00285326
Heightened Def Con from 0.00285326 to 0.00285326
Heightened Def Con from 0.00285903 to 0.00285904
Heightened Def Con from 0.00285904 to 0.00285904
Heightened Def Con from 0.00285904 to 0.00285904
Heightened Def Con from 0.00285905 to 0.00285905
Heightened Def Con from 0.00285909 to 0.00285911
Heightened Def Con from 0.00285995 to 0.00285995
Heightened Def Con from 0.0028601 to 0.00286011
Heightened Def Con from 0.00286011 to 0.00286011
Heightened Def Con from 0.00286011 to 0.00286011
Heightened Def Con from 0.00286014 to 0.00286014
Heightened Def Con from 0.00286015 to 0.00286015
Heightened Def Con from 0.00286586 to 0.00286586
Heightened Def Con from 0.00286587 to 0.00286587
Heightened Def Con from 0.00286587 to 0.00286587
Heightened Def Con from 0.00286587 to 0.00286587
Heightened Def Con from 0.00286591 to 0.00286593
Heightened Def Con from 0.00286599 to 0.00286599
Heightened Def Con from 0.00286685 to 0.00286686
Heightened Def Con from 0.00286697 to 0.00286697
Heightened Def Con from 0.00286702 to 0.00286702
Heightened Def Con from 0.00286702 to 0.00286702
Heightened Def Con from 0.00286706 to 0.00286706
Heightened Def Con from 0.00286707 to 0.00286708
Heightened Def Con from 0.00287283 to 0.00287284
Heightened Def Con from 0.00287284 to 0.00287284
Heightened Def Con from 0.00287284 to 0.00287284
Heightened Def Con from 0.00287284 to 0.00287284
Heightened Def Con from 0.00287284 to 0.00287284
Heightened Def Con from 0.00287284 to 0.00287284
Heightened Def Con from 0.00287284 to 0.00287284
Heightened Def Con from 0.00287284 to 0.00287284
Heightened Def Con from 0.00287284 to 0.00287284
Heightened Def Con from 0.00287373 to 0.00287373
Heightened Def Con from 0.00287383 to 0.00287384
Heightened Def Con from 0.00287384 to 0.00287384
Heightened Def Con from 0.00287388 to 0.00287389
Heightened Def Con from 0.00287392 to 0.00287393
Heightened Def Con from 0.00287393 to 0.00287393
Heightened Def Con from 0.00287394 to 0.00287395
Heightened Def Con from 0.00287958 to 0.00287959
Heightened Def Con from 0.00287959 to 0.00287959
Heightened Def Con from 0.00287959 to 0.00287959
Heightened Def Con from 0.00287959 to 0.00287959
Heightened Def Con from 0.00287959 to 0.00287959
Heightened Def Con from 0.00287959 to 0.00287959
Heightened Def Con from 0.00287959 to 0.00287959
Heightened Def Con from 0.00287959 to 0.00287959
Heightened Def Con from 0.00287959 to 0.00287959
Heightened Def Con from 0.00287963 to 0.00287964
Heightened Def Con from 0.00287965 to 0.00287965
Heightened Def Con from 0.00287965 to 0.00287965
Heightened Def Con from 0.00288054 to 0.00288055
Heightened Def Con from 0.00288066 to 0.00288066
Heightened Def Con from 0.0028807 to 0.0028807
Heightened Def Con from 0.00288071 to 0.00288071
Heightened Def Con from 0.00288074 to 0.00288075
Heightened Def Con from 0.00288076 to 0.00288076
Heightened Def Con from 0.00288639 to 0.00288639
Heightened Def Con from 0.00288639 to 0.00288639
Heightened Def Con from 0.00288639 to 0.00288639
Heightened Def Con from 0.00288644 to 0.00288644
Heightened Def Con from 0.00288644 to 0.00288645
Heightened Def Con from 0.00288645 to 0.00288645
Heightened Def Con from 0.00288747 to 0.00288747
Heightened Def Con from 0.00288758 to 0.00288758
Heightened Def Con from 0.00288758 to 0.00288759
Heightened Def Con from 0.00288763 to 0.00288764
Heightened Def Con from 0.00288766 to 0.00288767
Heightened Def Con from 0.00288767 to 0.00288767
Heightened Def Con from 0.00288767 to 0.00288768
Heightened Def Con from 0.00288769 to 0.00288769
Heightened Def Con from 0.00289352 to 0.00289352
Heightened Def Con from 0.00289352 to 0.00289353
Heightened Def Con from 0.00289353 to 0.00289353
Heightened Def Con from 0.00289353 to 0.00289353
Heightened Def Con from 0.00289353 to 0.00289353
Heightened Def Con from 0.00289353 to 0.00289353
Heightened Def Con from 0.00289353 to 0.00289353
Heightened Def Con from 0.00289353 to 0.00289353
Heightened Def Con from 0.00289358 to 0.00289359
Heightened Def Con from 0.00289434 to 0.00289435
Heightened Def Con from 0.0028945 to 0.0028945
Heightened Def Con from 0.00289454 to 0.00289455
Heightened Def Con from 0.00289456 to 0.00289456
Heightened Def Con from 0.00289461 to 0.00289461
Heightened Def Con from 0.00290018 to 0.00290019
Heightened Def Con from 0.00290019 to 0.00290019
Heightened Def Con from 0.00290024 to 0.00290025
Heightened Def Con from 0.00290031 to 0.00290032
Heightened Def Con from 0.00290121 to 0.00290121
Heightened Def Con from 0.00290132 to 0.00290132
Heightened Def Con from 0.00290137 to 0.00290137
Heightened Def Con from 0.00290137 to 0.00290137
Heightened Def Con from 0.00290141 to 0.00290142
Heightened Def Con from 0.00290142 to 0.00290142
Heightened Def Con from 0.00290713 to 0.00290714
Heightened Def Con from 0.00290714 to 0.00290714
Heightened Def Con from 0.00290714 to 0.00290715
Heightened Def Con from 0.0029072 to 0.00290721
Heightened Def Con from 0.00290808 to 0.00290808
Heightened Def Con from 0.00290809 to 0.00290809
Heightened Def Con from 0.00290819 to 0.0029082
Heightened Def Con from 0.00290824 to 0.00290824
Heightened Def Con from 0.00290824 to 0.00290824
Heightened Def Con from 0.00291397 to 0.00291399
Heightened Def Con from 0.00291399 to 0.00291399
Heightened Def Con from 0.00291399 to 0.00291399
Heightened Def Con from 0.00291399 to 0.00291399
Heightened Def Con from 0.00291403 to 0.00291405
Heightened Def Con from 0.0029149 to 0.0029149
Heightened Def Con from 0.0029149 to 0.0029149
Heightened Def Con from 0.00291506 to 0.00291506
Heightened Def Con from 0.00291506 to 0.00291506
Heightened Def Con from 0.00291506 to 0.00291506
Heightened Def Con from 0.0029151 to 0.0029151
Heightened Def Con from 0.0029151 to 0.0029151
Heightened Def Con from 0.00292073 to 0.00292073
Heightened Def Con from 0.00292073 to 0.00292073
Heightened Def Con from 0.00292073 to 0.00292073
Heightened Def Con from 0.00292078 to 0.00292078
Heightened Def Con from 0.00292078 to 0.00292078
Heightened Def Con from 0.00292079 to 0.0029208
Heightened Def Con from 0.00292182 to 0.00292183
Heightened Def Con from 0.00292201 to 0.00292201
Heightened Def Con from 0.00292202 to 0.00292202
Heightened Def Con from 0.00292202 to 0.00292203
Heightened Def Con from 0.00292786 to 0.00292787
Heightened Def Con from 0.00292787 to 0.00292787
Heightened Def Con from 0.00292787 to 0.00292788
Heightened Def Con from 0.00292788 to 0.00292788
Heightened Def Con from 0.00292788 to 0.00292788
Heightened Def Con from 0.00292788 to 0.00292788
Heightened Def Con from 0.00292788 to 0.00292788
Heightened Def Con from 0.00292788 to 0.00292788
Heightened Def Con from 0.00292792 to 0.00292794
Heightened Def Con from 0.00292798 to 0.00292798
Heightened Def Con from 0.00292864 to 0.00292865
Heightened Def Con from 0.00292876 to 0.00292876
Heightened Def Con from 0.0029288 to 0.00292881
Heightened Def Con from 0.00292881 to 0.00292881
Heightened Def Con from 0.00292883 to 0.00292885
Heightened Def Con from 0.00293441 to 0.00293441
Heightened Def Con from 0.00293441 to 0.00293441
Heightened Def Con from 0.00293441 to 0.00293441
Heightened Def Con from 0.00293441 to 0.00293441
Heightened Def Con from 0.00293445 to 0.00293447
Heightened Def Con from 0.00293448 to 0.00293449
Heightened Def Con from 0.00293556 to 0.00293557
Heightened Def Con from 0.00293572 to 0.00293573
Heightened Def Con from 0.00293576 to 0.00293576
Heightened Def Con from 0.00293576 to 0.00293577
Heightened Def Con from 0.00293578 to 0.00293578
Heightened Def Con from 0.00293579 to 0.00293579
Heightened Def Con from 0.00294162 to 0.00294163
Heightened Def Con from 0.00294164 to 0.00294164
Heightened Def Con from 0.00294164 to 0.00294164
Heightened Def Con from 0.0029417 to 0.0029417
Heightened Def Con from 0.00294238 to 0.00294239
Heightened Def Con from 0.00294254 to 0.00294254
Heightened Def Con from 0.00294254 to 0.00294255
Heightened Def Con from 0.00294259 to 0.00294259
Heightened Def Con from 0.0029426 to 0.0029426
Heightened Def Con from 0.00294812 to 0.00294812
Heightened Def Con from 0.00294812 to 0.00294813
Heightened Def Con from 0.00294813 to 0.00294813
Heightened Def Con from 0.00294818 to 0.00294818
Heightened Def Con from 0.00294818 to 0.0029482
Heightened Def Con from 0.00294929 to 0.0029493
Heightened Def Con from 0.0029494 to 0.00294941
Heightened Def Con from 0.00294946 to 0.00294946
Heightened Def Con from 0.00294949 to 0.0029495
Heightened Def Con from 0.00294951 to 0.00294951
Heightened Def Con from 0.00295535 to 0.00295536
Heightened Def Con from 0.00295536 to 0.00295536
Heightened Def Con from 0.00295536 to 0.00295536
Heightened Def Con from 0.00295541 to 0.00295542
Heightened Def Con from 0.00295543 to 0.00295543
Heightened Def Con from 0.00295617 to 0.00295617
Heightened Def Con from 0.00295628 to 0.00295628
Heightened Def Con from 0.00295628 to 0.00295628
Heightened Def Con from 0.00295633 to 0.00295633
Heightened Def Con from 0.00295633 to 0.00295633
Heightened Def Con from 0.00295636 to 0.00295636
Heightened Def Con from 0.00295637 to 0.00295637
Heightened Def Con from 0.00295639 to 0.00295639
Heightened Def Con from 0.00296202 to 0.00296202
Heightened Def Con from 0.00296202 to 0.00296202
Heightened Def Con from 0.00296202 to 0.00296202
Heightened Def Con from 0.00296202 to 0.00296203
Heightened Def Con from 0.00296207 to 0.00296207
Heightened Def Con from 0.00296208 to 0.00296208
Heightened Def Con from 0.00296305 to 0.00296306
Heightened Def Con from 0.00296317 to 0.00296317
Heightened Def Con from 0.00296321 to 0.00296322
Heightened Def Con from 0.00296322 to 0.00296322
Heightened Def Con from 0.00296324 to 0.00296326
Heightened Def Con from 0.00296327 to 0.00296327
Heightened Def Con from 0.00296331 to 0.00296332
Heightened Def Con from 0.00296899 to 0.002969
Heightened Def Con from 0.002969 to 0.002969
Heightened Def Con from 0.002969 to 0.002969
Heightened Def Con from 0.002969 to 0.00296901
Heightened Def Con from 0.00296905 to 0.00296905
Heightened Def Con from 0.00296905 to 0.00296907
Heightened Def Con from 0.00296907 to 0.00296907
Heightened Def Con from 0.00296912 to 0.00296912
Heightened Def Con from 0.00296991 to 0.00296991
Heightened Def Con from 0.00296991 to 0.00296992
Heightened Def Con from 0.00297003 to 0.00297003
Heightened Def Con from 0.00297007 to 0.00297008
Heightened Def Con from 0.00297008 to 0.00297008
Heightened Def Con from 0.00297008 to 0.00297008
Heightened Def Con from 0.00297011 to 0.00297011
Heightened Def Con from 0.00297012 to 0.00297012
Heightened Def Con from 0.00297578 to 0.0029758
Heightened Def Con from 0.0029758 to 0.0029758
Heightened Def Con from 0.0029758 to 0.0029758
Heightened Def Con from 0.0029758 to 0.0029758
Heightened Def Con from 0.00297585 to 0.00297585
Heightened Def Con from 0.00297679 to 0.0029768
Heightened Def Con from 0.00297691 to 0.00297691
Heightened Def Con from 0.00297691 to 0.00297691
Heightened Def Con from 0.00297695 to 0.00297696
Heightened Def Con from 0.00297696 to 0.00297696
Heightened Def Con from 0.00297696 to 0.00297696
Heightened Def Con from 0.00297699 to 0.002977
Heightened Def Con from 0.00298273 to 0.00298275
Heightened Def Con from 0.00298275 to 0.00298275
Heightened Def Con from 0.00298275 to 0.00298275
Heightened Def Con from 0.00298275 to 0.00298275
Heightened Def Con from 0.00298279 to 0.0029828
Heightened Def Con from 0.00298281 to 0.00298281
Heightened Def Con from 0.00298366 to 0.00298367
Heightened Def Con from 0.00298376 to 0.00298377
Heightened Def Con from 0.00298378 to 0.00298378
Heightened Def Con from 0.00298382 to 0.00298383
Heightened Def Con from 0.00298383 to 0.00298383
Heightened Def Con from 0.00298387 to 0.00298387
Heightened Def Con from 0.00298388 to 0.00298389
Heightened Def Con from 0.00298391 to 0.00298391
Heightened Def Con from 0.00298955 to 0.00298955
Heightened Def Con from 0.00298955 to 0.00298955
Heightened Def Con from 0.00298956 to 0.00298956
Heightened Def Con from 0.00298956 to 0.00298956
Heightened Def Con from 0.00298962 to 0.00298962
Heightened Def Con from 0.00298963 to 0.00298963
Heightened Def Con from 0.00299054 to 0.00299054
Heightened Def Con from 0.00299065 to 0.00299065
Heightened Def Con from 0.0029907 to 0.0029907
Heightened Def Con from 0.0029907 to 0.00299071
Heightened Def Con from 0.00299073 to 0.00299073
Heightened Def Con from 0.00299074 to 0.00299074
Heightened Def Con from 0.00299646 to 0.00299646
Heightened Def Con from 0.00299647 to 0.00299647
Heightened Def Con from 0.00299647 to 0.00299647
Heightened Def Con from 0.00299651 to 0.00299652
Heightened Def Con from 0.00299652 to 0.00299653
Heightened Def Con from 0.00299736 to 0.00299736
Heightened Def Con from 0.00299746 to 0.00299747
Heightened Def Con from 0.00299755 to 0.00299757

Date: Wed May 22 19:32:12 2024
Total elapsed time: 57.638 seconds.

tnom = 27
temp = 27
method = modified trap
totiter = 2534588
traniter = 2534553
tranpoints = 449102
accept = 294049
rejected = 160782
matrix size = 170
fillins = 67
solver = Normal
Thread vector: 10.7/8.7[4] 5.6/3.9[4] 2.4/2.9[1] 0.4/1.7[1]  2592/500
Matrix Compiler1: 11.89 KB object code size  2.2/1.0/[0.7]
Matrix Compiler2: 13.96 KB object code size  1.0/1.7/[0.6]

